@<TRIPOS>MOLECULE
ChEBML476336
 38 40 0 0 0
SMALL
USER_CHARGES

@<TRIPOS>ATOM
      1 C          -1.6354    1.0418   -2.8726 C.ar    1  LIG1       -0.0622
      2 C          -2.8292    1.7630   -2.8890 C.ar    1  LIG1       -0.0620
      3 C          -1.6426   -0.3112   -2.5332 C.ar    1  LIG1       -0.0620
      4 C         -12.7291   -4.3822    2.0940 C.ar    1  LIG1       -0.0547
      5 C         -12.1210   -3.1308    2.2457 C.ar    1  LIG1       -0.0525
      6 C          -4.0302    1.1314   -2.5658 C.ar    1  LIG1       -0.0590
      7 C          -2.8435   -0.9429   -2.2101 C.ar    1  LIG1       -0.0590
      8 C         -12.0141   -5.4663    1.5889 C.ar    1  LIG1        0.0172
      9 C          -9.8568   -1.8829    1.8981 C.ar    1  LIG1       -0.0260
     10 C         -10.7690   -2.9750    1.8805 C.ar    1  LIG1        0.0048
     11 C          -4.0373   -0.2216   -2.2264 C.ar    1  LIG1       -0.0464
     12 C         -10.0772   -4.0788    1.3771 C.ar    1  LIG1        0.1160
     13 C         -10.6721   -5.3356    1.2200 C.ar    1  LIG1        0.2847
     14 C          -8.6513   -2.3365    1.4145 C.ar    1  LIG1        0.0946
     15 C          -7.4336   -1.6089    1.2442 C.2     1  LIG1        0.2572
     16 C          -5.3362   -0.9055   -1.8766 C.3     1  LIG1       -0.0122
     17 C          -5.6628   -0.8370   -0.3867 C.3     1  LIG1        0.0154
     18 N          -8.7941   -3.6619    1.1026 N.ar    1  LIG1       -0.3045
     19 N          -6.8948   -1.5169   -0.0572 N.am    1  LIG1       -0.3099
     20 N          -9.9923   -6.4768    0.7100 N.pl3   1  LIG1        0.1043
     21 O          -6.8418   -1.0813    2.2196 O.2     1  LIG1       -0.2704
     22 O         -10.6175   -7.5584    0.6088 O.2     1  LIG1        0.0314
     23 O          -8.7891   -6.3658    0.3771 O.2     1  LIG1       -0.5802
     24 H          -0.7005    1.5334   -3.1255 H       1  LIG1        0.0622
     25 H          -2.8239    2.8162   -3.1542 H       1  LIG1        0.0623
     26 H          -0.7134   -0.8733   -2.5213 H       1  LIG1        0.0623
     27 H         -13.7716   -4.5075    2.3749 H       1  LIG1        0.0625
     28 H         -12.6908   -2.2946    2.6407 H       1  LIG1        0.0630
     29 H          -4.9555    1.7013   -2.5811 H       1  LIG1        0.0625
     30 H          -2.8395   -1.9972   -1.9467 H       1  LIG1        0.0625
     31 H         -12.5208   -6.4241    1.4872 H       1  LIG1        0.0695
     32 H         -10.0657   -0.8750    2.2314 H       1  LIG1        0.0651
     33 H          -5.2703   -1.9564   -2.1853 H       1  LIG1        0.0332
     34 H          -6.1549   -0.4693   -2.4631 H       1  LIG1        0.0332
     35 H          -4.8701   -1.3221    0.1915 H       1  LIG1        0.0470
     36 H          -5.7537    0.1977   -0.0402 H       1  LIG1        0.0470
     37 H          -8.0635   -4.2514    0.7276 H       1  LIG1        0.1532
     38 H          -7.3661   -2.0086   -0.8095 H       1  LIG1        0.1497
@<TRIPOS>BOND
     1     1     2   ar
     2     1     3   ar
     3     2     6   ar
     4     3     7   ar
     5     4     5   ar
     6     4     8   ar
     7     5    10   ar
     8     6    11   ar
     9     7    11   ar
    10     8    13   ar
    11     9    10   ar
    12     9    14   ar
    13    10    12   ar
    14    11    16    1
    15    12    13   ar
    16    12    18   ar
    17    13    20    1
    18    14    15    1
    19    14    18   ar
    20    15    19   am
    21    15    21    2
    22    16    17    1
    23    17    19    1
    24    20    22    2
    25    20    23    2
    26     1    24    1
    27     2    25    1
    28     3    26    1
    29     4    27    1
    30     5    28    1
    31     6    29    1
    32     7    30    1
    33     8    31    1
    34     9    32    1
    35    16    33    1
    36    16    34    1
    37    17    35    1
    38    17    36    1
    39    18    37    1
    40    19    38    1
