@<TRIPOS>MOLECULE
ChEBML232762
 35 37 0 0 0
SMALL
USER_CHARGES

@<TRIPOS>ATOM
      1 C          -4.2733   -2.5362    0.2890 C.ar    1  LIG1       -0.0589
      2 C          -5.4535   -2.3842    1.0166 C.ar    1  LIG1       -0.0508
      3 C         -11.4816   -5.4999    0.6835 C.ar    1  LIG1       -0.0574
      4 C         -10.2124   -5.0285    0.3357 C.ar    1  LIG1       -0.0399
      5 C          -3.8879   -1.5577   -0.6274 C.ar    1  LIG1       -0.0318
      6 C         -11.8404   -3.6108    2.1665 C.ar    1  LIG1       -0.0501
      7 C          -9.8119   -1.9716    2.2172 C.ar    1  LIG1       -0.0276
      8 C          -5.8634   -0.2754   -0.0888 C.ar    1  LIG1       -0.0206
      9 C         -10.5644   -3.1160    1.8311 C.ar    1  LIG1       -0.0020
     10 C          -6.2487   -1.2538    0.8276 C.ar    1  LIG1        0.0264
     11 C         -12.2847   -4.8036    1.5845 C.ar    1  LIG1       -0.0504
     12 C          -9.7814   -3.8349    0.9254 C.ar    1  LIG1        0.0378
     13 C          -4.6831   -0.4273   -0.8163 C.ar    1  LIG1        0.0753
     14 C          -8.6089   -2.0172    1.5509 C.ar    1  LIG1        0.0797
     15 C          -7.5247   -1.0889    1.6142 C.2     1  LIG1        0.2067
     16 C         -13.6353   -5.3342    1.9347 C.3     1  LIG1       -0.0397
     17 C          -3.0892    0.3091   -2.4203 C.3     1  LIG1        0.0422
     18 N          -8.6000   -3.1445    0.7740 N.ar    1  LIG1       -0.3112
     19 O          -7.5817   -0.0705    2.3422 O.2     1  LIG1       -0.2871
     20 O          -4.3073    0.5276   -1.7103 O.3     1  LIG1       -0.3493
     21 H          -3.6543   -3.4163    0.4362 H       1  LIG1        0.0624
     22 H          -5.7440   -3.1521    1.7288 H       1  LIG1        0.0630
     23 H         -11.8382   -6.4260    0.2378 H       1  LIG1        0.0626
     24 H          -9.5879   -5.5714   -0.3658 H       1  LIG1        0.0643
     25 H          -2.9674   -1.6818   -1.1912 H       1  LIG1        0.0650
     26 H         -12.4700   -3.0707    2.8687 H       1  LIG1        0.0632
     27 H         -10.1216   -1.1997    2.9093 H       1  LIG1        0.0651
     28 H          -6.4794    0.6084   -0.2394 H       1  LIG1        0.0658
     29 H         -13.5687   -6.0020    2.8017 H       1  LIG1        0.0280
     30 H         -14.3319   -4.5208    2.1733 H       1  LIG1        0.0280
     31 H         -14.0720   -5.8923    1.0969 H       1  LIG1        0.0280
     32 H          -2.9076    1.1454   -3.0999 H       1  LIG1        0.0535
     33 H          -3.1575   -0.6244   -2.9845 H       1  LIG1        0.0535
     34 H          -2.2675    0.2401   -1.7036 H       1  LIG1        0.0535
     35 H          -7.8382   -3.4316    0.1750 H       1  LIG1        0.1529
@<TRIPOS>BOND
     1     1     2   ar
     2     1     5   ar
     3     2    10   ar
     4     3     4   ar
     5     3    11   ar
     6     4    12   ar
     7     5    13   ar
     8     6     9   ar
     9     6    11   ar
    10     7     9   ar
    11     7    14   ar
    12     8    10   ar
    13     8    13   ar
    14     9    12   ar
    15    10    15    1
    16    11    16    1
    17    12    18   ar
    18    13    20    1
    19    14    15    1
    20    14    18   ar
    21    15    19    2
    22    17    20    1
    23     1    21    1
    24     2    22    1
    25     3    23    1
    26     4    24    1
    27     5    25    1
    28     6    26    1
    29     7    27    1
    30     8    28    1
    31    16    29    1
    32    16    30    1
    33    16    31    1
    34    17    32    1
    35    17    33    1
    36    17    34    1
    37    18    35    1
