@<TRIPOS>MOLECULE
ChEBML92461
 44 46 0 0 0
SMALL
USER_CHARGES

@<TRIPOS>ATOM
      1 C         -12.9561   -5.8888    0.3159 C.1     1  LIG1        0.1106
      2 C         -12.9608   -3.9525    1.8354 C.1     1  LIG1        0.1106
      3 C          -3.7702    0.7923   -2.6478 C.ar    1  LIG1       -0.0394
      4 C          -1.9258   -0.7091   -2.2222 C.ar    1  LIG1       -0.0394
      5 C          -3.0073    1.4576   -3.6074 C.ar    1  LIG1       -0.0417
      6 C          -1.1629   -0.0438   -3.1819 C.ar    1  LIG1       -0.0417
      7 C         -10.4639   -2.1821    1.4187 C.ar    1  LIG1       -0.0390
      8 C          -9.2340   -1.5955    1.8065 C.ar    1  LIG1       -0.0378
      9 C          -3.2295   -0.2910   -1.9550 C.ar    1  LIG1        0.0290
     10 C          -1.7037    1.0396   -3.8745 C.ar    1  LIG1        0.0407
     11 C         -10.1946   -3.4689    1.0078 C.ar    1  LIG1        0.0323
     12 C          -8.2504   -2.5417    1.6206 C.ar    1  LIG1        0.0518
     13 C         -10.9853   -4.5219    0.5222 C.2     1  LIG1       -0.0122
     14 C         -12.2759   -4.7677    0.8829 C.2     1  LIG1        0.1310
     15 C          -5.2298   -1.5450   -1.5076 C.3     1  LIG1        0.0509
     16 C          -4.0819   -0.2613    0.2896 C.3     1  LIG1        0.0509
     17 C          -5.8564   -2.4520   -0.4572 C.3     1  LIG1       -0.0177
     18 C          -4.7155   -1.1685    1.3368 C.3     1  LIG1       -0.0177
     19 C          -6.7711   -2.4788    1.8628 C.3     1  LIG1        0.0051
     20 N         -13.5107   -6.7987   -0.1440 N.1     1  LIG1       -0.1916
     21 N         -13.5210   -3.2939    2.6097 N.1     1  LIG1       -0.1916
     22 N          -8.8457   -3.6764    1.1345 N.ar    1  LIG1       -0.3139
     23 N          -3.9862   -0.9491   -1.0019 N.pl3   1  LIG1       -0.3203
     24 N          -6.0378   -1.6779    0.8237 N.4     1  LIG1        0.2525
     25 CL         -0.7629    1.8606   -5.0585 Cl      1  LIG1       -0.0843
     26 H          -4.7846    1.1267   -2.4463 H       1  LIG1        0.0643
     27 H          -1.4943   -1.5512   -1.6871 H       1  LIG1        0.0643
     28 H          -3.4414    2.3014   -4.1378 H       1  LIG1        0.0639
     29 H          -0.1478   -0.3800   -3.3779 H       1  LIG1        0.0639
     30 H         -11.4384   -1.7133    1.4395 H       1  LIG1        0.0643
     31 H          -9.0840   -0.5924    2.1810 H       1  LIG1        0.0642
     32 H         -10.5128   -5.2277   -0.1784 H       1  LIG1        0.0664
     33 H          -5.0268   -2.1388   -2.4074 H       1  LIG1        0.0524
     34 H          -5.9348   -0.7512   -1.7876 H       1  LIG1        0.0524
     35 H          -4.6763    0.6553    0.1797 H       1  LIG1        0.0524
     36 H          -3.0841    0.0322    0.6384 H       1  LIG1        0.0524
     37 H          -6.8440   -2.7957   -0.7814 H       1  LIG1        0.0831
     38 H          -5.2208   -3.3168   -0.2343 H       1  LIG1        0.0831
     39 H          -4.0872   -2.0402    1.5532 H       1  LIG1        0.0831
     40 H          -4.9080   -0.6158    2.2621 H       1  LIG1        0.0831
     41 H          -6.5476   -2.0176    2.8308 H       1  LIG1        0.0882
     42 H          -6.3269   -3.4800    1.8596 H       1  LIG1        0.0882
     43 H          -8.3600   -4.5340    0.9071 H       1  LIG1        0.1526
     44 H          -6.6264   -0.8600    0.6133 H       1  LIG1        0.2009
@<TRIPOS>BOND
     1     1    14    1
     2     1    20    3
     3     2    14    1
     4     2    21    3
     5     3     5   ar
     6     3     9   ar
     7     4     6   ar
     8     4     9   ar
     9     5    10   ar
    10     6    10   ar
    11     7     8   ar
    12     7    11   ar
    13     8    12   ar
    14     9    23    1
    15    10    25    1
    16    11    13    1
    17    11    22   ar
    18    12    19    1
    19    12    22   ar
    20    13    14    2
    21    15    17    1
    22    15    23    1
    23    16    18    1
    24    16    23    1
    25    17    24    1
    26    18    24    1
    27    19    24    1
    28     3    26    1
    29     4    27    1
    30     5    28    1
    31     6    29    1
    32     7    30    1
    33     8    31    1
    34    13    32    1
    35    15    33    1
    36    15    34    1
    37    16    35    1
    38    16    36    1
    39    17    37    1
    40    17    38    1
    41    18    39    1
    42    18    40    1
    43    19    41    1
    44    19    42    1
    45    22    43    1
    46    24    44    1
