@<TRIPOS>MOLECULE
ChEBML345898
 38 40 0 0 0
SMALL
USER_CHARGES

@<TRIPOS>ATOM
      1 C          -2.7422    1.0174   -3.4037 C.ar    1  LIG1       -0.0621
      2 C          -2.3209    1.4037   -2.1313 C.ar    1  LIG1       -0.0604
      3 C          -3.5375   -0.1178   -3.5602 C.ar    1  LIG1       -0.0604
      4 C         -10.3212   -4.9967    0.2381 C.ar    1  LIG1       -0.0280
      5 C         -11.5574   -5.5475    0.5890 C.ar    1  LIG1       -0.0291
      6 C          -2.6948    0.6549   -1.0156 C.ar    1  LIG1       -0.0395
      7 C          -3.9113   -0.8667   -2.4444 C.ar    1  LIG1       -0.0395
      8 C         -11.9083   -3.8527    2.3042 C.ar    1  LIG1       -0.0218
      9 C          -9.9034   -2.1746    2.4197 C.ar    1  LIG1       -0.0157
     10 C         -10.6683   -3.2822    1.9678 C.ar    1  LIG1        0.0107
     11 C          -9.9202   -3.8691    0.9523 C.ar    1  LIG1        0.0898
     12 C         -12.3386   -4.9876    1.6032 C.ar    1  LIG1        0.0754
     13 C          -3.4901   -0.4804   -1.1720 C.ar    1  LIG1        0.0558
     14 C          -8.7563   -2.1598    1.6604 C.ar    1  LIG1        0.1467
     15 C          -7.6338   -1.2852    1.6692 C.2     1  LIG1        0.2839
     16 C         -14.2902   -4.9379    2.9614 C.3     1  LIG1        0.0422
     17 N          -6.5962   -1.5363    0.7511 N.am    1  LIG1       -0.2190
     18 N          -5.4257   -0.6840    0.6968 N.3     1  LIG1       -0.2074
     19 O          -7.5571   -0.3089    2.4610 O.2     1  LIG1       -0.2678
     20 O          -2.9724   -1.2047    1.2798 O.2     1  LIG1       -0.4750
     21 O          -4.2375   -2.7773   -0.2224 O.2     1  LIG1       -0.4750
     22 O          -8.7568   -3.1838    0.7675 O.2     1  LIG1       -0.3041
     23 O         -13.5383   -5.5536    1.9183 O.3     1  LIG1       -0.3493
     24 S          -3.9612   -1.4318    0.2431 S.O2    1  LIG1       -0.1526
     25 H          -2.4508    1.5997   -4.2730 H       1  LIG1        0.0622
     26 H          -1.7008    2.2869   -2.0091 H       1  LIG1        0.0623
     27 H          -3.8647   -0.4187   -4.5510 H       1  LIG1        0.0623
     28 H          -9.7095   -5.4247   -0.5471 H       1  LIG1        0.0651
     29 H         -11.9115   -6.4283    0.0581 H       1  LIG1        0.0651
     30 H          -2.3603    0.9641   -0.0289 H       1  LIG1        0.0642
     31 H          -4.5300   -1.7499   -2.5781 H       1  LIG1        0.0642
     32 H         -12.5223   -3.4238    3.0910 H       1  LIG1        0.0657
     33 H         -10.1611   -1.4758    3.2036 H       1  LIG1        0.0660
     34 H         -15.2231   -5.4866    3.1118 H       1  LIG1        0.0535
     35 H         -14.5044   -3.9001    2.6935 H       1  LIG1        0.0535
     36 H         -13.7040   -4.9606    3.8831 H       1  LIG1        0.0535
     37 H          -6.6136   -2.3163    0.1033 H       1  LIG1        0.1756
     38 H          -5.4045    0.1002    1.3602 H       1  LIG1        0.1892
@<TRIPOS>BOND
     1     1     2   ar
     2     1     3   ar
     3     2     6   ar
     4     3     7   ar
     5     4     5   ar
     6     4    11   ar
     7     5    12   ar
     8     6    13   ar
     9     7    13   ar
    10     8    10   ar
    11     8    12   ar
    12     9    10   ar
    13     9    14   ar
    14    10    11   ar
    15    11    22   ar
    16    12    23    1
    17    13    24    1
    18    14    15    1
    19    14    22   ar
    20    15    17   am
    21    15    19    2
    22    16    23    1
    23    17    18    1
    24    18    24    1
    25    20    24    2
    26    21    24    2
    27     1    25    1
    28     2    26    1
    29     3    27    1
    30     4    28    1
    31     5    29    1
    32     6    30    1
    33     7    31    1
    34     8    32    1
    35     9    33    1
    36    16    34    1
    37    16    35    1
    38    16    36    1
    39    17    37    1
    40    18    38    1
