@<TRIPOS>MOLECULE
ChEBML386106
 44 48 0 0 0
SMALL
USER_CHARGES

@<TRIPOS>ATOM
      1 C         -12.5309   -4.7160    0.8522 C.ar    1  LIG1       -0.0615
      2 C         -11.7400   -5.6976    1.4460 C.ar    1  LIG1       -0.0603
      3 C          -2.8499    1.5981   -3.3341 C.ar    1  LIG1       -0.0602
      4 C          -1.5197    1.2867   -3.6158 C.ar    1  LIG1       -0.0606
      5 C         -12.0564   -3.4078    0.7020 C.ar    1  LIG1       -0.0530
      6 C         -10.4534   -5.4051    1.9075 C.ar    1  LIG1       -0.0402
      7 C          -3.6900    0.6320   -2.7804 C.ar    1  LIG1       -0.0371
      8 C          -1.0297    0.0094   -3.3439 C.ar    1  LIG1       -0.0415
      9 C          -9.9794   -1.9011    1.1709 C.ar    1  LIG1       -0.0262
     10 C          -5.1933   -3.3639   -1.8114 C.ar    1  LIG1        0.0521
     11 C         -10.7624   -3.0892    1.1596 C.ar    1  LIG1       -0.0022
     12 C          -5.4804   -2.6329   -0.6439 C.ar    1  LIG1        0.0087
     13 C          -9.9923   -4.0932    1.7507 C.ar    1  LIG1        0.0378
     14 C          -3.2001   -0.6453   -2.5084 C.ar    1  LIG1        0.0747
     15 C          -1.8699   -0.9567   -2.7902 C.ar    1  LIG1        0.0641
     16 C          -8.7717   -2.2010    1.7579 C.ar    1  LIG1        0.0947
     17 C          -4.7306   -1.4883   -0.7740 C.ar    1  LIG1        0.0419
     18 C          -7.6567   -1.3308    1.9946 C.2     1  LIG1        0.2601
     19 C          -6.3495   -2.9156    0.5245 C.3     1  LIG1        0.0427
     20 C          -4.6852   -0.3722    0.1956 C.3     1  LIG1        0.0039
     21 C          -5.2165   -0.8936    1.5433 C.3     1  LIG1        0.0202
     22 N          -4.3327   -2.7299   -2.6175 N.ar    1  LIG1       -0.1845
     23 N          -8.7888   -3.5256    2.1040 N.ar    1  LIG1       -0.3101
     24 N          -4.0690   -1.5852   -1.9571 N.ar    1  LIG1       -0.1962
     25 N          -6.4495   -1.6986    1.3770 N.am    1  LIG1       -0.2918
     26 O          -7.7816   -0.3350    2.7052 O.2     1  LIG1       -0.2701
     27 CL         -1.2163   -2.5257   -2.4734 Cl      1  LIG1       -0.0822
     28 H         -13.5279   -4.9678    0.5004 H       1  LIG1        0.0623
     29 H         -12.1286   -6.7069    1.5529 H       1  LIG1        0.0623
     30 H          -3.2310    2.5926   -3.5468 H       1  LIG1        0.0623
     31 H          -0.8658    2.0388   -4.0474 H       1  LIG1        0.0623
     32 H         -12.6834   -2.6522    0.2367 H       1  LIG1        0.0629
     33 H          -9.8380   -6.1693    2.3702 H       1  LIG1        0.0642
     34 H          -4.7244    0.8912   -2.5666 H       1  LIG1        0.0644
     35 H           0.0089   -0.2162   -3.5715 H       1  LIG1        0.0639
     36 H         -10.2725   -0.9321    0.7891 H       1  LIG1        0.0651
     37 H          -5.5714   -4.3307   -2.1117 H       1  LIG1        0.0861
     38 H          -7.3379   -3.2408    0.1893 H       1  LIG1        0.0521
     39 H          -5.9122   -3.7065    1.1437 H       1  LIG1        0.0521
     40 H          -3.6716    0.0206    0.3245 H       1  LIG1        0.0346
     41 H          -5.3261    0.4421   -0.1624 H       1  LIG1        0.0346
     42 H          -4.4765   -1.5501    2.0186 H       1  LIG1        0.0473
     43 H          -5.3860   -0.0517    2.2219 H       1  LIG1        0.0473
     44 H          -8.0301   -4.0184    2.5547 H       1  LIG1        0.1529
@<TRIPOS>BOND
     1     1     2   ar
     2     1     5   ar
     3     2     6   ar
     4     3     4   ar
     5     3     7   ar
     6     4     8   ar
     7     5    11   ar
     8     6    13   ar
     9     7    14   ar
    10     8    15   ar
    11     9    11   ar
    12     9    16   ar
    13    10    12   ar
    14    10    22   ar
    15    11    13   ar
    16    12    17   ar
    17    12    19    1
    18    13    23   ar
    19    14    15   ar
    20    14    24    1
    21    15    27    1
    22    16    18    1
    23    16    23   ar
    24    17    20    1
    25    17    24   ar
    26    18    25   am
    27    18    26    2
    28    19    25    1
    29    20    21    1
    30    21    25    1
    31    22    24   ar
    32     1    28    1
    33     2    29    1
    34     3    30    1
    35     4    31    1
    36     5    32    1
    37     6    33    1
    38     7    34    1
    39     8    35    1
    40     9    36    1
    41    10    37    1
    42    19    38    1
    43    19    39    1
    44    20    40    1
    45    20    41    1
    46    21    42    1
    47    21    43    1
    48    23    44    1
