@<TRIPOS>MOLECULE
ChEBML300324
 52 54 0 0 0
SMALL
USER_CHARGES

@<TRIPOS>ATOM
      1 C         -10.6649   -5.1936    0.9872 C.ar    1  LIG1       -0.0387
      2 C         -12.0187   -5.3480    1.2990 C.ar    1  LIG1       -0.0416
      3 C         -12.1381   -3.0811    2.1615 C.ar    1  LIG1       -0.0343
      4 C          -9.8589   -1.8224    2.0023 C.ar    1  LIG1       -0.0262
      5 C         -10.7743   -2.9021    1.8560 C.ar    1  LIG1       -0.0007
      6 C         -10.0706   -3.9603    1.2770 C.ar    1  LIG1        0.0379
      7 C         -12.7459   -4.3094    1.8771 C.ar    1  LIG1        0.0413
      8 C          -8.6400   -2.2384    1.5187 C.ar    1  LIG1        0.0945
      9 C          -7.3660   -1.4771    1.4522 C.2     1  LIG1        0.2576
     10 C          -4.8382   -0.8434   -0.5335 C.2     1  LIG1        0.2323
     11 C          -2.2041   -2.9141   -0.7656 C.2     1  LIG1        0.2785
     12 C          -2.1201    1.5704   -3.4980 C.3     1  LIG1       -0.0515
     13 C          -1.6359    0.2317   -4.0621 C.3     1  LIG1       -0.0515
     14 C          -2.7917    1.2482   -2.1657 C.3     1  LIG1       -0.0344
     15 C          -2.0422   -0.8279   -3.0412 C.3     1  LIG1       -0.0344
     16 C          -3.2338   -0.2012   -2.3272 C.3     1  LIG1        0.0260
     17 C          -4.0998   -5.0165   -3.0848 C.3     1  LIG1       -0.0409
     18 C          -4.9735   -1.5574    0.7998 C.3     1  LIG1        0.0887
     19 C          -2.3992   -1.4658   -0.3833 C.3     1  LIG1        0.1007
     20 C          -3.0066   -4.7063   -2.0846 C.3     1  LIG1        0.0536
     21 N          -8.7776   -3.5291    1.0833 N.ar    1  LIG1       -0.3101
     22 N          -6.2758   -2.1499    0.9094 N.am    1  LIG1       -0.3013
     23 N          -3.5306   -0.8320   -1.0739 N.am    1  LIG1       -0.2875
     24 O          -7.3299   -0.3286    1.8862 O.2     1  LIG1       -0.2704
     25 O          -5.8187   -0.3259   -1.0749 O.2     1  LIG1       -0.2756
     26 O          -1.3028   -3.5985   -0.2923 O.2     1  LIG1       -0.2647
     27 O          -3.1266   -3.3410   -1.6712 O.3     1  LIG1       -0.3150
     28 CL        -14.4135   -4.5374    2.2457 Cl      1  LIG1       -0.0843
     29 H         -10.0997   -6.0033    0.5376 H       1  LIG1        0.0643
     30 H         -12.4973   -6.3005    1.0810 H       1  LIG1        0.0639
     31 H         -12.7039   -2.2703    2.6129 H       1  LIG1        0.0645
     32 H         -10.0736   -0.8466    2.4176 H       1  LIG1        0.0651
     33 H          -1.2969    2.2799   -3.3675 H       1  LIG1        0.0267
     34 H          -2.8402    2.0247   -4.1882 H       1  LIG1        0.0267
     35 H          -2.1205    0.0389   -5.0262 H       1  LIG1        0.0267
     36 H          -0.5544    0.2278   -4.2314 H       1  LIG1        0.0267
     37 H          -2.0677    1.3491   -1.3470 H       1  LIG1        0.0285
     38 H          -3.6292    1.9192   -1.9504 H       1  LIG1        0.0285
     39 H          -2.2916   -1.7838   -3.5123 H       1  LIG1        0.0285
     40 H          -1.2157   -1.0095   -2.3424 H       1  LIG1        0.0285
     41 H          -4.1317   -0.2632   -2.9535 H       1  LIG1        0.0506
     42 H          -5.0883   -4.8723   -2.6398 H       1  LIG1        0.0254
     43 H          -4.0113   -4.3722   -3.9657 H       1  LIG1        0.0254
     44 H          -4.0184   -6.0502   -3.4370 H       1  LIG1        0.0254
     45 H          -4.2370   -2.3613    0.8766 H       1  LIG1        0.0567
     46 H          -4.8638   -0.8484    1.6246 H       1  LIG1        0.0567
     47 H          -1.4979   -0.9054   -0.6447 H       1  LIG1        0.0578
     48 H          -2.5931   -1.4017    0.6904 H       1  LIG1        0.0578
     49 H          -2.0207   -4.8525   -2.5360 H       1  LIG1        0.0570
     50 H          -3.0970   -5.3503   -1.2048 H       1  LIG1        0.0570
     51 H          -8.0391   -4.0877    0.6778 H       1  LIG1        0.1529
     52 H          -6.3755   -3.1251    0.6294 H       1  LIG1        0.1503
@<TRIPOS>BOND
     1     1     2   ar
     2     1     6   ar
     3     2     7   ar
     4     3     5   ar
     5     3     7   ar
     6     4     5   ar
     7     4     8   ar
     8     5     6   ar
     9     6    21   ar
    10     7    28    1
    11     8     9    1
    12     8    21   ar
    13     9    22   am
    14     9    24    2
    15    10    18    1
    16    10    23   am
    17    10    25    2
    18    11    19    1
    19    11    26    2
    20    11    27    1
    21    12    13    1
    22    12    14    1
    23    13    15    1
    24    14    16    1
    25    15    16    1
    26    16    23    1
    27    17    20    1
    28    18    22    1
    29    19    23    1
    30    20    27    1
    31     1    29    1
    32     2    30    1
    33     3    31    1
    34     4    32    1
    35    12    33    1
    36    12    34    1
    37    13    35    1
    38    13    36    1
    39    14    37    1
    40    14    38    1
    41    15    39    1
    42    15    40    1
    43    16    41    1
    44    17    42    1
    45    17    43    1
    46    17    44    1
    47    18    45    1
    48    18    46    1
    49    19    47    1
    50    19    48    1
    51    20    49    1
    52    20    50    1
    53    21    51    1
    54    22    52    1
