@<TRIPOS>MOLECULE
ChEBML486170
 48 51 0 0 0
SMALL
USER_CHARGES

@<TRIPOS>ATOM
      1 C          -1.6784    0.6122   -4.3091 C.ar    1  LIG1       -0.0622
      2 C          -2.5884    1.5729   -3.8681 C.ar    1  LIG1       -0.0616
      3 C          -1.3937   -0.4966   -3.5121 C.ar    1  LIG1       -0.0616
      4 C          -3.2136    1.4250   -2.6299 C.ar    1  LIG1       -0.0544
      5 C          -2.0188   -0.6445   -2.2739 C.ar    1  LIG1       -0.0544
      6 C          -3.6566    0.5308    1.8401 C.ar    1  LIG1       -0.0539
      7 C         -10.3051   -5.2908    0.6127 C.ar    1  LIG1       -0.0387
      8 C          -4.8682   -0.1570    1.9065 C.ar    1  LIG1       -0.0403
      9 C         -11.6559   -5.6443    0.6795 C.ar    1  LIG1       -0.0416
     10 C         -12.2451   -3.4556    1.5510 C.ar    1  LIG1       -0.0343
     11 C         -10.1771   -1.8883    1.8176 C.ar    1  LIG1       -0.0262
     12 C          -4.7903   -0.5252   -0.4800 C.ar    1  LIG1       -0.0325
     13 C         -10.8893   -3.0766    1.4925 C.ar    1  LIG1       -0.0007
     14 C          -2.9287    0.3162   -1.8329 C.ar    1  LIG1       -0.0179
     15 C          -3.5787    0.1627   -0.5465 C.ar    1  LIG1       -0.0106
     16 C          -3.0119    0.6907    0.6134 C.ar    1  LIG1       -0.0093
     17 C          -9.9525   -4.0011    1.0257 C.ar    1  LIG1        0.0379
     18 C          -5.4351   -0.6850    0.7466 C.ar    1  LIG1        0.0335
     19 C         -12.6126   -4.7423    1.1411 C.ar    1  LIG1        0.0413
     20 C          -8.8465   -2.1103    1.5471 C.ar    1  LIG1        0.0948
     21 C          -7.7465   -1.2138    1.7128 C.2     1  LIG1        0.2615
     22 C          -1.8250    2.8635    1.1286 C.3     1  LIG1        0.0733
     23 C          -1.7147    1.4338    0.5809 C.3     1  LIG1        0.1027
     24 N          -8.7210   -3.3873    1.0696 N.ar    1  LIG1       -0.3101
     25 N          -6.6666   -1.3841    0.8150 N.am    1  LIG1       -0.2802
     26 O          -7.7100   -0.3468    2.6158 O.2     1  LIG1       -0.2700
     27 O          -2.7423    3.6077    0.3396 O.3     1  LIG1       -0.3933
     28 O          -0.7393    0.7196    1.3480 O.3     1  LIG1       -0.3859
     29 CL        -14.2684   -5.2144    1.2075 Cl      1  LIG1       -0.0843
     30 H          -1.1930    0.7267   -5.2738 H       1  LIG1        0.0622
     31 H          -2.8115    2.4354   -4.4892 H       1  LIG1        0.0623
     32 H          -0.6862   -1.2458   -3.8554 H       1  LIG1        0.0623
     33 H          -3.9208    2.1825   -2.3002 H       1  LIG1        0.0629
     34 H          -1.7873   -1.5144   -1.6638 H       1  LIG1        0.0629
     35 H          -3.2235    0.9381    2.7499 H       1  LIG1        0.0627
     36 H          -9.5612   -5.9941    0.2537 H       1  LIG1        0.0643
     37 H          -5.3616   -0.2759    2.8679 H       1  LIG1        0.0642
     38 H         -11.9485   -6.6431    0.3629 H       1  LIG1        0.0639
     39 H         -12.9902   -2.7512    1.9117 H       1  LIG1        0.0645
     40 H         -10.5973   -0.9707    2.2073 H       1  LIG1        0.0651
     41 H          -5.2376   -0.9392   -1.3821 H       1  LIG1        0.0649
     42 H          -2.1605    2.8707    2.1715 H       1  LIG1        0.0594
     43 H          -0.8533    3.3689    1.0959 H       1  LIG1        0.0594
     44 H          -1.3296    1.4775   -0.4513 H       1  LIG1        0.0677
     45 H          -7.8516   -3.8203    0.7892 H       1  LIG1        0.1529
     46 H          -6.7917   -2.1138    0.1177 H       1  LIG1        0.1560
     47 H          -2.7804    4.5003    0.7200 H       1  LIG1        0.2102
     48 H           0.0766    1.2377    1.2961 H       1  LIG1        0.2110
@<TRIPOS>BOND
     1     1     2   ar
     2     1     3   ar
     3     2     4   ar
     4     3     5   ar
     5     4    14   ar
     6     5    14   ar
     7     6     8   ar
     8     6    16   ar
     9     7     9   ar
    10     7    17   ar
    11     8    18   ar
    12     9    19   ar
    13    10    13   ar
    14    10    19   ar
    15    11    13   ar
    16    11    20   ar
    17    12    15   ar
    18    12    18   ar
    19    13    17   ar
    20    14    15    1
    21    15    16   ar
    22    16    23    1
    23    17    24   ar
    24    18    25    1
    25    19    29    1
    26    20    21    1
    27    20    24   ar
    28    21    25   am
    29    21    26    2
    30    22    23    1
    31    22    27    1
    32    23    28    1
    33     1    30    1
    34     2    31    1
    35     3    32    1
    36     4    33    1
    37     5    34    1
    38     6    35    1
    39     7    36    1
    40     8    37    1
    41     9    38    1
    42    10    39    1
    43    11    40    1
    44    12    41    1
    45    22    42    1
    46    22    43    1
    47    23    44    1
    48    24    45    1
    49    25    46    1
    50    27    47    1
    51    28    48    1
