@<TRIPOS>MOLECULE
ChEBML512903
 45 47 0 0 0
SMALL
USER_CHARGES

@<TRIPOS>ATOM
      1 C          -1.7631    1.0854   -2.2434 C.ar    1  LIG1       -0.0622
      2 C         -12.5562   -4.6333    0.6718 C.ar    1  LIG1       -0.0615
      3 C          -2.6744    1.4886   -3.2194 C.ar    1  LIG1       -0.0620
      4 C          -1.9763   -0.0978   -1.5363 C.ar    1  LIG1       -0.0620
      5 C         -11.6325   -5.2169   -0.1930 C.ar    1  LIG1       -0.0603
      6 C         -12.1585   -3.6557    1.5911 C.ar    1  LIG1       -0.0530
      7 C          -3.7990    0.7084   -3.4884 C.ar    1  LIG1       -0.0590
      8 C          -3.1009   -0.8780   -1.8053 C.ar    1  LIG1       -0.0590
      9 C         -10.2856   -4.8439   -0.1676 C.ar    1  LIG1       -0.0402
     10 C         -10.0694   -2.3296    2.4164 C.ar    1  LIG1       -0.0262
     11 C         -10.8059   -3.2635    1.6352 C.ar    1  LIG1       -0.0022
     12 C          -4.0123   -0.4749   -2.7812 C.ar    1  LIG1       -0.0480
     13 C          -9.9025   -3.8655    0.7566 C.ar    1  LIG1        0.0378
     14 C          -8.7575   -2.3819    2.0049 C.ar    1  LIG1        0.0947
     15 C          -7.6112   -1.6084    2.5079 C.2     1  LIG1        0.2595
     16 C          -5.7920    0.0006    2.0887 C.3     1  LIG1        0.0031
     17 C          -5.2275   -1.3182   -3.0711 C.3     1  LIG1       -0.0278
     18 C          -6.4179   -0.9153   -2.1972 C.3     1  LIG1       -0.0477
     19 C          -6.0802   -1.0453   -0.7091 C.3     1  LIG1       -0.0370
     20 C          -7.2404   -0.6385    0.1934 C.3     1  LIG1        0.0141
     21 N          -8.6668   -3.3109    1.0034 N.ar    1  LIG1       -0.3101
     22 N          -6.9266   -0.7828    1.5880 N.am    1  LIG1       -0.2998
     23 O          -7.3487   -1.7388    3.7029 O.2     1  LIG1       -0.2702
     24 H          -0.8868    1.6924   -2.0351 H       1  LIG1        0.0622
     25 H         -13.5984   -4.9393    0.6327 H       1  LIG1        0.0623
     26 H          -2.5080    2.4095   -3.7708 H       1  LIG1        0.0623
     27 H          -1.2664   -0.4126   -0.7772 H       1  LIG1        0.0623
     28 H         -11.9633   -5.9744   -0.8986 H       1  LIG1        0.0623
     29 H         -12.8892   -3.2084    2.2593 H       1  LIG1        0.0629
     30 H          -4.5038    1.0305   -4.2504 H       1  LIG1        0.0625
     31 H          -3.2590   -1.7984   -1.2493 H       1  LIG1        0.0625
     32 H          -9.5666   -5.2987   -0.8406 H       1  LIG1        0.0642
     33 H         -10.4617   -1.6896    3.1956 H       1  LIG1        0.0651
     34 H          -4.8671   -0.5741    1.9931 H       1  LIG1        0.0433
     35 H          -5.9423    0.2528    3.1420 H       1  LIG1        0.0433
     36 H          -5.6912    0.9274    1.5174 H       1  LIG1        0.0433
     37 H          -4.9825   -2.3761   -2.9118 H       1  LIG1        0.0316
     38 H          -5.4891   -1.2266   -4.1329 H       1  LIG1        0.0316
     39 H          -7.2835   -1.5471   -2.4330 H       1  LIG1        0.0270
     40 H          -6.7090    0.1174   -2.4254 H       1  LIG1        0.0270
     41 H          -5.8176   -2.0874   -0.4906 H       1  LIG1        0.0283
     42 H          -5.1990   -0.4342   -0.4778 H       1  LIG1        0.0283
     43 H          -8.1093   -1.2738   -0.0056 H       1  LIG1        0.0469
     44 H          -7.5326    0.4021    0.0209 H       1  LIG1        0.0469
     45 H          -7.8172   -3.5573    0.5142 H       1  LIG1        0.1529
@<TRIPOS>BOND
     1     1     3   ar
     2     1     4   ar
     3     2     5   ar
     4     2     6   ar
     5     3     7   ar
     6     4     8   ar
     7     5     9   ar
     8     6    11   ar
     9     7    12   ar
    10     8    12   ar
    11     9    13   ar
    12    10    11   ar
    13    10    14   ar
    14    11    13   ar
    15    12    17    1
    16    13    21   ar
    17    14    15    1
    18    14    21   ar
    19    15    22   am
    20    15    23    2
    21    16    22    1
    22    17    18    1
    23    18    19    1
    24    19    20    1
    25    20    22    1
    26     1    24    1
    27     2    25    1
    28     3    26    1
    29     4    27    1
    30     5    28    1
    31     6    29    1
    32     7    30    1
    33     8    31    1
    34     9    32    1
    35    10    33    1
    36    16    34    1
    37    16    35    1
    38    16    36    1
    39    17    37    1
    40    17    38    1
    41    18    39    1
    42    18    40    1
    43    19    41    1
    44    19    42    1
    45    20    43    1
    46    20    44    1
    47    21    45    1
