@<TRIPOS>MOLECULE
ChEBML233252
 34 36 0 0 0
SMALL
USER_CHARGES

@<TRIPOS>ATOM
      1 C          -4.1889   -3.2435    0.8698 C.ar    1  LIG1       -0.0547
      2 C          -5.4192   -2.9055    1.4334 C.ar    1  LIG1       -0.0505
      3 C         -10.3223   -5.1613    0.4506 C.ar    1  LIG1       -0.0376
      4 C          -3.6066   -2.4099   -0.0851 C.ar    1  LIG1        0.0152
      5 C         -11.6636   -5.4743    0.6892 C.ar    1  LIG1       -0.0299
      6 C         -11.9846   -3.4112    1.9293 C.ar    1  LIG1       -0.0226
      7 C          -9.8153   -1.9686    2.0616 C.ar    1  LIG1       -0.0275
      8 C          -5.4850   -0.9002    0.0873 C.ar    1  LIG1        0.0263
      9 C         -10.6355   -3.0743    1.7015 C.ar    1  LIG1        0.0003
     10 C          -6.0673   -1.7339    1.0422 C.ar    1  LIG1        0.0306
     11 C          -9.8371   -3.9554    0.9689 C.ar    1  LIG1        0.0379
     12 C          -4.2546   -1.2382   -0.4763 C.ar    1  LIG1        0.2638
     13 C         -12.4837   -4.6143    1.4168 C.ar    1  LIG1        0.0753
     14 C          -8.5583   -2.1957    1.5504 C.ar    1  LIG1        0.0797
     15 C          -7.3974   -1.3691    1.6519 C.2     1  LIG1        0.2068
     16 C         -14.5752   -4.0261    2.3843 C.3     1  LIG1        0.0422
     17 N          -8.5813   -3.3963    0.8929 N.ar    1  LIG1       -0.3112
     18 N          -3.6614   -0.3901   -1.4485 N.pl3   1  LIG1        0.1023
     19 O          -7.4278   -0.2771    2.2660 O.2     1  LIG1       -0.2871
     20 O          -2.5542   -0.7130   -1.9427 O.2     1  LIG1        0.0314
     21 O          -4.2608    0.6591   -1.7870 O.2     1  LIG1       -0.5803
     22 O         -13.7876   -4.9473    1.6329 O.3     1  LIG1       -0.3493
     23 H          -3.6845   -4.1559    1.1743 H       1  LIG1        0.0625
     24 H          -5.8639   -3.5627    2.1762 H       1  LIG1        0.0630
     25 H          -9.6847   -5.8312   -0.1163 H       1  LIG1        0.0643
     26 H          -2.6471   -2.6853   -0.5161 H       1  LIG1        0.0695
     27 H         -12.0658   -6.4057    0.2973 H       1  LIG1        0.0651
     28 H         -12.6308   -2.7455    2.4950 H       1  LIG1        0.0657
     29 H         -10.1170   -1.1014    2.6340 H       1  LIG1        0.0651
     30 H          -5.9925    0.0132   -0.2161 H       1  LIG1        0.0702
     31 H         -15.5927   -4.4119    2.4833 H       1  LIG1        0.0535
     32 H         -14.5887   -3.0584    1.8767 H       1  LIG1        0.0535
     33 H         -14.1342   -3.9086    3.3770 H       1  LIG1        0.0535
     34 H          -7.7927   -3.8147    0.4188 H       1  LIG1        0.1529
@<TRIPOS>BOND
     1     1     2   ar
     2     1     4   ar
     3     2    10   ar
     4     3     5   ar
     5     3    11   ar
     6     4    12   ar
     7     5    13   ar
     8     6     9   ar
     9     6    13   ar
    10     7     9   ar
    11     7    14   ar
    12     8    10   ar
    13     8    12   ar
    14     9    11   ar
    15    10    15    1
    16    11    17   ar
    17    12    18    1
    18    13    22    1
    19    14    15    1
    20    14    17   ar
    21    15    19    2
    22    16    22    1
    23    18    20    2
    24    18    21    2
    25     1    23    1
    26     2    24    1
    27     3    25    1
    28     4    26    1
    29     5    27    1
    30     6    28    1
    31     7    29    1
    32     8    30    1
    33    16    31    1
    34    16    32    1
    35    16    33    1
    36    17    34    1
