@<TRIPOS>MOLECULE
ChEBML205315
 66 69 0 0 0
SMALL
USER_CHARGES

@<TRIPOS>ATOM
      1 C         -10.4143   -4.7025   -0.1889 C.ar    1  LIG1       -0.0383
      2 C         -11.7683   -4.9369   -0.2544 C.ar    1  LIG1       -0.0377
      3 C          -2.4162    0.5220   -3.8467 C.ar    1  LIG1       -0.0345
      4 C          -2.7059   -0.8117   -4.0997 C.ar    1  LIG1       -0.0227
      5 C         -12.1682   -3.3459    1.5076 C.ar    1  LIG1       -0.0304
      6 C         -10.0022   -2.2437    2.3921 C.ar    1  LIG1       -0.0261
      7 C         -10.7912   -3.0978    1.5839 C.ar    1  LIG1       -0.0003
      8 C          -9.9093   -3.7835    0.7267 C.ar    1  LIG1        0.0379
      9 C         -12.6475   -4.2608    0.5923 C.ar    1  LIG1        0.0437
     10 C          -2.8503    1.0779   -2.6505 C.ar    1  LIG1        0.0673
     11 C          -8.7036   -2.4143    2.0303 C.ar    1  LIG1        0.0947
     12 C          -3.5543    0.2778   -1.7479 C.ar    1  LIG1        0.1429
     13 C          -3.4118   -1.5415   -3.1626 C.ar    1  LIG1        0.1310
     14 C          -7.5546   -1.7137    2.6231 C.2     1  LIG1        0.2598
     15 C          -4.7055    0.1589    1.7071 C.3     1  LIG1       -0.0185
     16 C          -5.8430   -0.7695   -0.3166 C.3     1  LIG1       -0.0185
     17 C          -5.2084   -1.0191    2.5476 C.3     1  LIG1        0.0162
     18 C          -6.3587   -1.9579    0.5010 C.3     1  LIG1        0.0162
     19 C          -4.5057   -0.3001    0.2609 C.3     1  LIG1        0.0268
     20 C          -2.1996    4.7206   -3.0873 C.3     1  LIG1       -0.0470
     21 C          -0.3390    3.0532   -3.0949 C.3     1  LIG1       -0.0470
     22 C          -5.1424    1.6761   -0.8551 C.3     1  LIG1        0.0018
     23 C         -14.2266   -5.8525    2.8715 C.3     1  LIG1        0.0225
     24 C          -1.8416    3.2492   -3.3058 C.3     1  LIG1        0.0142
     25 N          -3.8136   -0.9879   -2.0322 N.ar    1  LIG1       -0.2193
     26 N          -8.6353   -3.3461    1.0133 N.ar    1  LIG1       -0.3101
     27 N          -6.4160   -1.5688    1.9166 N.am    1  LIG1       -0.2966
     28 N          -2.5811    2.4197   -2.3511 N.pl3   1  LIG1       -0.3393
     29 N         -14.0221   -4.5120    0.5130 N.pl3   1  LIG1       -0.2633
     30 N          -3.9919    0.8183   -0.5410 N.pl3   1  LIG1       -0.3141
     31 O          -7.6316   -1.2650    3.7512 O.2     1  LIG1       -0.2702
     32 O         -16.0368   -5.7783    0.8899 O.2     1  LIG1       -0.4814
     33 O         -13.8731   -6.9153    0.4312 O.2     1  LIG1       -0.4814
     34 S         -14.6405   -5.9286    1.1070 S.O2    1  LIG1       -0.1957
     35 CL         -3.7763   -3.2097   -3.4751 Cl      1  LIG1       -0.0622
     36 H          -9.7426   -5.2316   -0.8487 H       1  LIG1        0.0643
     37 H         -12.1541   -5.6508   -0.9670 H       1  LIG1        0.0643
     38 H          -1.8662    1.1136   -4.5636 H       1  LIG1        0.0645
     39 H          -2.3831   -1.2746   -5.0206 H       1  LIG1        0.0656
     40 H         -12.8509   -2.8241    2.1620 H       1  LIG1        0.0650
     41 H         -10.3672   -1.5763    3.1586 H       1  LIG1        0.0651
     42 H          -3.7573    0.5148    2.1101 H       1  LIG1        0.0302
     43 H          -5.4388    0.9649    1.7349 H       1  LIG1        0.0302
     44 H          -6.5656    0.0453   -0.2697 H       1  LIG1        0.0302
     45 H          -5.7045   -1.0742   -1.3539 H       1  LIG1        0.0302
     46 H          -4.4382   -1.7890    2.5953 H       1  LIG1        0.0470
     47 H          -5.4463   -0.6746    3.5540 H       1  LIG1        0.0470
     48 H          -5.6824   -2.8043    0.3818 H       1  LIG1        0.0470
     49 H          -7.3558   -2.2329    0.1570 H       1  LIG1        0.0470
     50 H          -3.7910   -1.1227    0.2367 H       1  LIG1        0.0506
     51 H          -1.6495    5.3377   -3.7977 H       1  LIG1        0.0249
     52 H          -3.2702    4.8603   -3.2375 H       1  LIG1        0.0249
     53 H          -1.9343    5.0120   -2.0710 H       1  LIG1        0.0249
     54 H          -0.0840    2.0049   -3.2506 H       1  LIG1        0.0249
     55 H           0.2111    3.6702   -3.8053 H       1  LIG1        0.0249
     56 H          -0.0737    3.3445   -2.0788 H       1  LIG1        0.0249
     57 H          -5.8671    1.1114   -1.4416 H       1  LIG1        0.0432
     58 H          -5.6080    2.0129    0.0711 H       1  LIG1        0.0432
     59 H          -4.8058    2.5402   -1.4278 H       1  LIG1        0.0432
     60 H         -14.7618   -5.0236    3.3349 H       1  LIG1        0.0442
     61 H         -14.5160   -6.7864    3.3532 H       1  LIG1        0.0442
     62 H         -13.1532   -5.7017    2.9867 H       1  LIG1        0.0442
     63 H          -2.1071    2.9577   -4.3221 H       1  LIG1        0.0497
     64 H          -7.8234   -3.6446    0.5742 H       1  LIG1        0.1529
     65 H          -2.8842    2.7996   -1.5116 H       1  LIG1        0.1469
     66 H         -14.6125   -3.8561    0.1101 H       1  LIG1        0.1702
@<TRIPOS>BOND
     1     1     2   ar
     2     1     8   ar
     3     2     9   ar
     4     3     4   ar
     5     3    10   ar
     6     4    13   ar
     7     5     7   ar
     8     5     9   ar
     9     6     7   ar
    10     6    11   ar
    11     7     8   ar
    12     8    26   ar
    13     9    29    1
    14    10    12   ar
    15    10    28    1
    16    11    14    1
    17    11    26   ar
    18    12    25   ar
    19    12    30    1
    20    13    25   ar
    21    13    35    1
    22    14    27   am
    23    14    31    2
    24    15    17    1
    25    15    19    1
    26    16    18    1
    27    16    19    1
    28    17    27    1
    29    18    27    1
    30    19    30    1
    31    20    24    1
    32    21    24    1
    33    22    30    1
    34    23    34    1
    35    24    28    1
    36    29    34    1
    37    32    34    2
    38    33    34    2
    39     1    36    1
    40     2    37    1
    41     3    38    1
    42     4    39    1
    43     5    40    1
    44     6    41    1
    45    15    42    1
    46    15    43    1
    47    16    44    1
    48    16    45    1
    49    17    46    1
    50    17    47    1
    51    18    48    1
    52    18    49    1
    53    19    50    1
    54    20    51    1
    55    20    52    1
    56    20    53    1
    57    21    54    1
    58    21    55    1
    59    21    56    1
    60    22    57    1
    61    22    58    1
    62    22    59    1
    63    23    60    1
    64    23    61    1
    65    23    62    1
    66    24    63    1
    67    26    64    1
    68    28    65    1
    69    29    66    1
