@<TRIPOS>MOLECULE
ChEBML311220
 44 46 0 0 0
SMALL
USER_CHARGES

@<TRIPOS>ATOM
      1 C         -11.9846   -2.9689    0.9376 C.ar    1  LIG1       -0.0482
      2 C         -11.6375   -5.3560    0.8032 C.ar    1  LIG1       -0.0482
      3 C         -10.6184   -2.7820    1.1482 C.ar    1  LIG1       -0.0401
      4 C         -10.2713   -5.1692    1.0137 C.ar    1  LIG1       -0.0401
      5 C          -1.9903   -0.3701   -3.2176 C.ar    1  LIG1       -0.0163
      6 C         -12.4941   -4.2559    0.7652 C.ar    1  LIG1        0.0556
      7 C          -2.8109   -1.0915   -2.3683 C.ar    1  LIG1       -0.0057
      8 C          -9.7617   -3.8823    1.1862 C.ar    1  LIG1        0.0340
      9 C          -3.8761   -0.4339   -1.7865 C.ar    1  LIG1        0.1460
     10 C          -2.2896    0.9608   -3.4291 C.ar    1  LIG1        0.1516
     11 C          -7.8735   -2.4281    1.6443 C.2     1  LIG1        0.3050
     12 C          -4.8357   -0.6846    0.4469 C.3     1  LIG1        0.0289
     13 C          -5.7884   -1.9208   -1.5231 C.3     1  LIG1        0.0289
     14 C          -6.3026   -0.6745    0.8714 C.3     1  LIG1        0.0315
     15 C          -6.4773   -2.7699   -0.4538 C.3     1  LIG1        0.0315
     16 C          -2.5234   -2.5316   -2.1128 C.3     1  LIG1       -0.0361
     17 C         -13.9547   -4.4555    0.5401 C.3     1  LIG1        0.4160
     18 N          -4.1452    0.8696   -2.0114 N.ar    1  LIG1       -0.1335
     19 N          -3.3389    1.5783   -2.8465 N.ar    1  LIG1       -0.1367
     20 N          -4.7001   -1.1321   -0.9420 N.pl3   1  LIG1       -0.3110
     21 N          -6.9207   -1.9884    0.7060 N.am    1  LIG1       -0.2824
     22 N          -8.3908   -3.6951    1.3971 N.am    1  LIG1       -0.2691
     23 O          -8.2179   -1.7470    2.6157 O.2     1  LIG1       -0.2537
     24 F         -14.6707   -3.2922    0.5272 F       1  LIG1       -0.1661
     25 F         -14.2468   -5.0665   -0.6461 F       1  LIG1       -0.1661
     26 F         -14.5334   -5.2305    1.5033 F       1  LIG1       -0.1661
     27 CL         -1.3412    1.9449   -4.4610 Cl      1  LIG1       -0.0602
     28 H         -12.6450   -2.1061    0.9117 H       1  LIG1        0.0629
     29 H         -12.0260   -6.3624    0.6706 H       1  LIG1        0.0629
     30 H         -10.2321   -1.7746    1.2809 H       1  LIG1        0.0642
     31 H          -9.6127   -6.0338    1.0426 H       1  LIG1        0.0642
     32 H          -1.1388   -0.8392   -3.7008 H       1  LIG1        0.0660
     33 H          -4.4188    0.3215    0.5792 H       1  LIG1        0.0485
     34 H          -4.2626   -1.3641    1.0890 H       1  LIG1        0.0485
     35 H          -5.4007   -2.5787   -2.3101 H       1  LIG1        0.0485
     36 H          -6.5195   -1.2447   -1.9848 H       1  LIG1        0.0485
     37 H          -6.3864   -0.3459    1.9126 H       1  LIG1        0.0486
     38 H          -6.8779    0.0298    0.2580 H       1  LIG1        0.0486
     39 H          -7.3370   -3.2807   -0.8998 H       1  LIG1        0.0486
     40 H          -5.7886   -3.5349   -0.0753 H       1  LIG1        0.0486
     41 H          -1.8538   -2.6411   -1.2506 H       1  LIG1        0.0281
     42 H          -3.4450   -3.0929   -1.9103 H       1  LIG1        0.0281
     43 H          -2.0492   -3.0044   -2.9832 H       1  LIG1        0.0281
     44 H          -7.8121   -4.5268    1.4160 H       1  LIG1        0.1573
@<TRIPOS>BOND
     1     1     3   ar
     2     1     6   ar
     3     2     4   ar
     4     2     6   ar
     5     3     8   ar
     6     4     8   ar
     7     5     7   ar
     8     5    10   ar
     9     6    17    1
    10     7     9   ar
    11     7    16    1
    12     8    22    1
    13     9    18   ar
    14     9    20    1
    15    10    19   ar
    16    10    27    1
    17    11    21   am
    18    11    22   am
    19    11    23    2
    20    12    14    1
    21    12    20    1
    22    13    15    1
    23    13    20    1
    24    14    21    1
    25    15    21    1
    26    17    24    1
    27    17    25    1
    28    17    26    1
    29    18    19   ar
    30     1    28    1
    31     2    29    1
    32     3    30    1
    33     4    31    1
    34     5    32    1
    35    12    33    1
    36    12    34    1
    37    13    35    1
    38    13    36    1
    39    14    37    1
    40    14    38    1
    41    15    39    1
    42    15    40    1
    43    16    41    1
    44    16    42    1
    45    16    43    1
    46    22    44    1
