@<TRIPOS>MOLECULE
ChEBML300285
 42 43 0 0 0
SMALL
USER_CHARGES

@<TRIPOS>ATOM
      1 C         -10.5681   -5.1325    0.5289 C.ar    1  LIG1       -0.0387
      2 C         -11.8632   -5.5215    0.8825 C.ar    1  LIG1       -0.0416
      3 C         -12.1023   -3.6002    2.3483 C.ar    1  LIG1       -0.0343
      4 C          -9.9764   -2.0891    2.3816 C.ar    1  LIG1       -0.0262
      5 C         -10.7987   -3.1883    2.0070 C.ar    1  LIG1       -0.0007
      6 C         -10.0632   -3.9624    1.1070 C.ar    1  LIG1        0.0379
      7 C         -12.6204   -4.7687    1.7780 C.ar    1  LIG1        0.0413
      8 C          -8.7797   -2.2149    1.7146 C.ar    1  LIG1        0.0945
      9 C          -7.5944   -1.3211    1.7707 C.2     1  LIG1        0.2576
     10 C          -4.6261   -1.0857   -0.4109 C.2     1  LIG1        0.2313
     11 C          -2.5138    1.3425   -2.0916 C.3     1  LIG1       -0.0613
     12 C          -2.0761   -0.2496   -3.9884 C.3     1  LIG1       -0.0613
     13 C          -2.4423   -0.8617    0.7986 C.3     1  LIG1        0.0027
     14 C          -5.2833   -0.9442    0.9507 C.3     1  LIG1        0.0887
     15 C          -2.4507   -1.1618   -1.6477 C.3     1  LIG1        0.0161
     16 C          -2.7918   -0.0534   -2.6511 C.3     1  LIG1       -0.0312
     17 N          -8.8417   -3.3477    0.9480 N.ar    1  LIG1       -0.3101
     18 N          -6.5078   -1.6915    0.9847 N.am    1  LIG1       -0.3013
     19 N          -3.2276   -1.0383   -0.4206 N.am    1  LIG1       -0.3033
     20 O          -7.6202   -0.3358    2.5036 O.2     1  LIG1       -0.2704
     21 O          -5.3077   -1.2341   -1.4286 O.2     1  LIG1       -0.2756
     22 CL        -14.2139   -5.2797    2.1880 Cl      1  LIG1       -0.0843
     23 H          -9.9795   -5.7199   -0.1679 H       1  LIG1        0.0643
     24 H         -12.2720   -6.4290    0.4430 H       1  LIG1        0.0639
     25 H         -12.6914   -3.0123    3.0474 H       1  LIG1        0.0645
     26 H         -10.2365   -1.2930    3.0665 H       1  LIG1        0.0651
     27 H          -1.4516    1.4893   -1.8706 H       1  LIG1        0.0234
     28 H          -2.8114    2.1112   -2.8131 H       1  LIG1        0.0234
     29 H          -3.0815    1.5127   -1.1707 H       1  LIG1        0.0234
     30 H          -0.9879   -0.1986   -3.8777 H       1  LIG1        0.0234
     31 H          -2.3752    0.5254   -4.7023 H       1  LIG1        0.0234
     32 H          -2.3292   -1.2211   -4.4260 H       1  LIG1        0.0234
     33 H          -2.2050   -1.8345    1.2369 H       1  LIG1        0.0433
     34 H          -3.0054   -0.2745    1.5291 H       1  LIG1        0.0433
     35 H          -1.5083   -0.3395    0.5743 H       1  LIG1        0.0433
     36 H          -4.6303   -1.3438    1.7309 H       1  LIG1        0.0567
     37 H          -5.5304    0.1022    1.1475 H       1  LIG1        0.0567
     38 H          -2.6436   -2.1486   -2.0822 H       1  LIG1        0.0472
     39 H          -1.3881   -1.1171   -1.3846 H       1  LIG1        0.0472
     40 H          -3.8708   -0.1176   -2.8442 H       1  LIG1        0.0313
     41 H          -8.0999   -3.6868    0.3509 H       1  LIG1        0.1529
     42 H          -6.5454   -2.5601    0.4522 H       1  LIG1        0.1503
@<TRIPOS>BOND
     1     1     2   ar
     2     1     6   ar
     3     2     7   ar
     4     3     5   ar
     5     3     7   ar
     6     4     5   ar
     7     4     8   ar
     8     5     6   ar
     9     6    17   ar
    10     7    22    1
    11     8     9    1
    12     8    17   ar
    13     9    18   am
    14     9    20    2
    15    10    14    1
    16    10    19   am
    17    10    21    2
    18    11    16    1
    19    12    16    1
    20    13    19    1
    21    14    18    1
    22    15    16    1
    23    15    19    1
    24     1    23    1
    25     2    24    1
    26     3    25    1
    27     4    26    1
    28    11    27    1
    29    11    28    1
    30    11    29    1
    31    12    30    1
    32    12    31    1
    33    12    32    1
    34    13    33    1
    35    13    34    1
    36    13    35    1
    37    14    36    1
    38    14    37    1
    39    15    38    1
    40    15    39    1
    41    16    40    1
    42    17    41    1
    43    18    42    1
