@<TRIPOS>MOLECULE
ChEBML139394
 62 65 0 0 0
SMALL
USER_CHARGES

@<TRIPOS>ATOM
      1 C          -0.2100   -4.4569   -2.2958 C.ar    1  LIG1       -0.0622
      2 C          -1.3826   -4.3277   -1.5515 C.ar    1  LIG1       -0.0618
      3 C           0.4604   -3.3190   -2.7443 C.ar    1  LIG1       -0.0618
      4 C         -11.2329   -2.1782    2.7391 C.ar    1  LIG1       -0.0536
      5 C         -10.2862   -4.8155    0.3042 C.ar    1  LIG1       -0.0517
      6 C         -10.1191   -1.3401    2.6794 C.ar    1  LIG1       -0.0508
      7 C          -1.8848   -3.0604   -1.2558 C.ar    1  LIG1       -0.0538
      8 C          -0.0417   -2.0516   -2.4485 C.ar    1  LIG1       -0.0538
      9 C         -11.4001   -5.6536    0.3638 C.ar    1  LIG1       -0.0312
     10 C          -9.1070   -2.7996    1.0445 C.ar    1  LIG1       -0.0435
     11 C         -12.4122   -4.1942    1.9989 C.ar    1  LIG1       -0.0239
     12 C         -10.2201   -3.6545    1.0916 C.ar    1  LIG1       -0.0175
     13 C         -11.2990   -3.3392    1.9516 C.ar    1  LIG1       -0.0157
     14 C          -9.0581   -1.6501    1.8337 C.ar    1  LIG1        0.0181
     15 C          -1.2144   -1.9224   -1.7043 C.ar    1  LIG1       -0.0042
     16 C         -12.4609   -5.3435    1.2096 C.ar    1  LIG1        0.0752
     17 C          -7.8827   -0.7642    1.7727 C.2     1  LIG1        0.1624
     18 C          -3.9954    1.3003   -0.7116 C.3     1  LIG1       -0.0105
     19 C          -4.6971   -1.0617   -1.2321 C.3     1  LIG1       -0.0105
     20 C          -3.2057    1.3532   -2.0143 C.3     1  LIG1       -0.0321
     21 C          -3.9074   -1.0100   -2.5347 C.3     1  LIG1       -0.0321
     22 C          -5.1728    0.3260   -0.7956 C.3     1  LIG1       -0.0311
     23 C          -1.9648    0.0287   -3.7723 C.3     1  LIG1       -0.0433
     24 C         -13.5308   -7.3210    0.4345 C.3     1  LIG1        0.0422
     25 C          -1.7541   -0.5589   -1.3866 C.3     1  LIG1       -0.0067
     26 C          -7.1124   -0.6863    0.4560 C.3     1  LIG1        0.0111
     27 C          -5.9107    0.2508    0.5399 C.3     1  LIG1       -0.0427
     28 N          -2.7286   -0.0355   -2.4500 N.4     1  LIG1        0.2545
     29 O          -7.5133   -0.0961    2.7402 O.2     1  LIG1       -0.2941
     30 O         -13.5467   -6.1626    1.2672 O.3     1  LIG1       -0.3493
     31 H           0.1816   -5.4437   -2.5249 H       1  LIG1        0.0622
     32 H          -1.9041   -5.2137   -1.2013 H       1  LIG1        0.0623
     33 H           1.3739   -3.4192   -3.3229 H       1  LIG1        0.0623
     34 H         -12.0504   -1.9165    3.4077 H       1  LIG1        0.0629
     35 H          -9.4690   -5.0777   -0.3645 H       1  LIG1        0.0630
     36 H         -10.0912   -0.4474    3.2991 H       1  LIG1        0.0630
     37 H          -2.7991   -2.9693   -0.6753 H       1  LIG1        0.0628
     38 H           0.4872   -1.1706   -2.8022 H       1  LIG1        0.0628
     39 H         -11.4334   -6.5472   -0.2536 H       1  LIG1        0.0650
     40 H          -8.2711   -3.0323    0.3863 H       1  LIG1        0.0637
     41 H         -13.2503   -3.9659    2.6549 H       1  LIG1        0.0657
     42 H          -3.3358    1.0304    0.1214 H       1  LIG1        0.0323
     43 H          -4.3699    2.3068   -0.4876 H       1  LIG1        0.0323
     44 H          -5.5651   -1.7176   -1.3740 H       1  LIG1        0.0323
     45 H          -4.0946   -1.5240   -0.4413 H       1  LIG1        0.0323
     46 H          -3.8356    1.7462   -2.8217 H       1  LIG1        0.0815
     47 H          -2.3221    1.9937   -1.9152 H       1  LIG1        0.0815
     48 H          -3.5064   -1.9967   -2.7929 H       1  LIG1        0.0815
     49 H          -4.5514   -0.6673   -3.3537 H       1  LIG1        0.0815
     50 H          -5.8789    0.7015   -1.5483 H       1  LIG1        0.0307
     51 H          -1.6532   -0.9858   -4.0275 H       1  LIG1        0.0778
     52 H          -2.6396    0.4341   -4.5285 H       1  LIG1        0.0778
     53 H          -1.1007    0.6800   -3.6276 H       1  LIG1        0.0778
     54 H         -14.4550   -7.8861    0.5775 H       1  LIG1        0.0535
     55 H         -12.6682   -7.9421    0.6891 H       1  LIG1        0.0535
     56 H         -13.4560   -7.0073   -0.6095 H       1  LIG1        0.0535
     57 H          -2.2972   -0.5598   -0.4355 H       1  LIG1        0.0869
     58 H          -0.9472    0.1777   -1.3096 H       1  LIG1        0.0869
     59 H          -7.7944   -0.3285   -0.3239 H       1  LIG1        0.0350
     60 H          -6.7658   -1.6933    0.1968 H       1  LIG1        0.0350
     61 H          -5.2140   -0.0942    1.3099 H       1  LIG1        0.0274
     62 H          -6.2331    1.2572    0.8229 H       1  LIG1        0.0274
@<TRIPOS>BOND
     1     1     2   ar
     2     1     3   ar
     3     2     7   ar
     4     3     8   ar
     5     4     6   ar
     6     4    13   ar
     7     5     9   ar
     8     5    12   ar
     9     6    14   ar
    10     7    15   ar
    11     8    15   ar
    12     9    16   ar
    13    10    12   ar
    14    10    14   ar
    15    11    13   ar
    16    11    16   ar
    17    12    13   ar
    18    14    17    1
    19    15    25    1
    20    16    30    1
    21    17    26    1
    22    17    29    2
    23    18    20    1
    24    18    22    1
    25    19    21    1
    26    19    22    1
    27    20    28    1
    28    21    28    1
    29    22    27    1
    30    23    28    1
    31    24    30    1
    32    25    28    1
    33    26    27    1
    34     1    31    1
    35     2    32    1
    36     3    33    1
    37     4    34    1
    38     5    35    1
    39     6    36    1
    40     7    37    1
    41     8    38    1
    42     9    39    1
    43    10    40    1
    44    11    41    1
    45    18    42    1
    46    18    43    1
    47    19    44    1
    48    19    45    1
    49    20    46    1
    50    20    47    1
    51    21    48    1
    52    21    49    1
    53    22    50    1
    54    23    51    1
    55    23    52    1
    56    23    53    1
    57    24    54    1
    58    24    55    1
    59    24    56    1
    60    25    57    1
    61    25    58    1
    62    26    59    1
    63    26    60    1
    64    27    61    1
    65    27    62    1
