@<TRIPOS>MOLECULE
ChEBML198624
 42 44 0 0 0
SMALL
USER_CHARGES

@<TRIPOS>ATOM
      1 C          -2.2360    0.9601   -3.4731 C.ar    1  LIG1       -0.0422
      2 C         -11.9787   -2.9641    0.9314 C.ar    1  LIG1       -0.0482
      3 C         -11.6332   -5.3518    0.8033 C.ar    1  LIG1       -0.0482
      4 C         -10.6125   -2.7777    1.1424 C.ar    1  LIG1       -0.0401
      5 C         -10.2670   -5.1655    1.0142 C.ar    1  LIG1       -0.0401
      6 C          -1.9716   -0.3829   -3.2295 C.ar    1  LIG1       -0.0384
      7 C          -3.3301    1.5306   -2.8429 C.ar    1  LIG1        0.0292
      8 C         -12.4890   -4.2512    0.7619 C.ar    1  LIG1        0.0556
      9 C          -9.7566   -3.8784    1.1838 C.ar    1  LIG1        0.0340
     10 C          -2.7978   -1.1045   -2.3749 C.ar    1  LIG1        0.0809
     11 C          -3.8668   -0.4416   -1.7937 C.ar    1  LIG1        0.1388
     12 C          -7.8677   -2.4244    1.6395 C.2     1  LIG1        0.3050
     13 C          -4.8280   -0.6860    0.4396 C.3     1  LIG1        0.0289
     14 C          -5.7802   -1.9265   -1.5279 C.3     1  LIG1        0.0289
     15 C          -6.2951   -0.6738    0.8631 C.3     1  LIG1        0.0315
     16 C          -6.4704   -2.7724   -0.4569 C.3     1  LIG1        0.0315
     17 C         -13.9497   -4.4504    0.5364 C.3     1  LIG1        0.4160
     18 N          -4.1553    0.8618   -2.0065 N.ar    1  LIG1       -0.2398
     19 N          -4.6918   -1.1371   -0.9480 N.pl3   1  LIG1       -0.3115
     20 N          -6.9141   -1.9877    0.7006 N.am    1  LIG1       -0.2824
     21 N          -8.3857   -3.6917    1.3951 N.am    1  LIG1       -0.2691
     22 O          -8.2123   -1.7406    2.6089 O.2     1  LIG1       -0.2537
     23 F         -14.6649   -3.2866    0.5201 F       1  LIG1       -0.1661
     24 F         -14.2414   -5.0641   -0.6485 F       1  LIG1       -0.1661
     25 F         -14.5295   -5.2226    1.5011 F       1  LIG1       -0.1661
     26 CL         -2.4557   -2.7673   -2.0840 Cl      1  LIG1       -0.0805
     27 H          -1.6057    1.5421   -4.1359 H       1  LIG1        0.0639
     28 H         -12.6385   -2.1009    0.9030 H       1  LIG1        0.0629
     29 H         -12.0223   -6.3582    0.6729 H       1  LIG1        0.0629
     30 H         -10.2257   -1.7702    1.2728 H       1  LIG1        0.0642
     31 H          -9.6091   -6.0304    1.0456 H       1  LIG1        0.0642
     32 H          -1.1185   -0.8520   -3.7129 H       1  LIG1        0.0640
     33 H          -3.5798    2.5747   -3.0002 H       1  LIG1        0.0840
     34 H          -4.4105    0.3201    0.5696 H       1  LIG1        0.0485
     35 H          -4.2557   -1.3643    1.0838 H       1  LIG1        0.0485
     36 H          -5.3925   -2.5866   -2.3129 H       1  LIG1        0.0485
     37 H          -6.5106   -1.2511   -1.9918 H       1  LIG1        0.0485
     38 H          -6.3794   -0.3426    1.9035 H       1  LIG1        0.0486
     39 H          -6.8695    0.0293    0.2476 H       1  LIG1        0.0486
     40 H          -7.3302   -3.2838   -0.9022 H       1  LIG1        0.0486
     41 H          -5.7825   -3.5369   -0.0760 H       1  LIG1        0.0486
     42 H          -7.8077   -4.5238    1.4165 H       1  LIG1        0.1573
@<TRIPOS>BOND
     1     1     6   ar
     2     1     7   ar
     3     2     4   ar
     4     2     8   ar
     5     3     5   ar
     6     3     8   ar
     7     4     9   ar
     8     5     9   ar
     9     6    10   ar
    10     7    18   ar
    11     8    17    1
    12     9    21    1
    13    10    11   ar
    14    10    26    1
    15    11    18   ar
    16    11    19    1
    17    12    20   am
    18    12    21   am
    19    12    22    2
    20    13    15    1
    21    13    19    1
    22    14    16    1
    23    14    19    1
    24    15    20    1
    25    16    20    1
    26    17    23    1
    27    17    24    1
    28    17    25    1
    29     1    27    1
    30     2    28    1
    31     3    29    1
    32     4    30    1
    33     5    31    1
    34     6    32    1
    35     7    33    1
    36    13    34    1
    37    13    35    1
    38    14    36    1
    39    14    37    1
    40    15    38    1
    41    15    39    1
    42    16    40    1
    43    16    41    1
    44    21    42    1
