@<TRIPOS>MOLECULE
ChEBML893247
 43 45 0 0 0
SMALL
USER_CHARGES

@<TRIPOS>ATOM
      1 C          -2.6623    0.4057   -3.9694 C.ar    1  LIG1       -0.0621
      2 C          -2.9827    1.5206   -3.1947 C.ar    1  LIG1       -0.0605
      3 C          -2.5498   -0.8497   -3.3718 C.ar    1  LIG1       -0.0605
      4 C         -13.0942   -3.8020    1.7984 C.ar    1  LIG1       -0.0466
      5 C         -12.1446   -2.8563    2.1959 C.ar    1  LIG1       -0.0343
      6 C          -3.1905    1.3801   -1.8227 C.ar    1  LIG1       -0.0413
      7 C          -2.7576   -0.9902   -1.9996 C.ar    1  LIG1       -0.0413
      8 C         -11.4110   -5.0255    0.5540 C.ar    1  LIG1       -0.0326
      9 C         -12.7301   -4.8716    0.9881 C.ar    1  LIG1        0.0482
     10 C         -10.8046   -2.9881    1.7714 C.ar    1  LIG1        0.0799
     11 C         -10.4622   -4.0719    0.9571 C.ar    1  LIG1        0.0416
     12 C          -3.0779    0.1247   -1.2250 C.ar    1  LIG1        0.0360
     13 C          -8.6549   -2.5612    1.5193 C.ar    1  LIG1        0.1644
     14 C         -13.7339   -5.8444    0.5847 C.2     1  LIG1        0.2925
     15 C          -6.9932   -0.8228    2.2676 C.2     1  LIG1        0.2190
     16 C         -16.0524   -6.1369    0.1057 C.3     1  LIG1        0.0456
     17 C          -5.5005   -0.5630    2.1018 C.3     1  LIG1        0.0404
     18 C          -5.0682   -0.3768    0.6566 C.3     1  LIG1        0.0298
     19 N          -9.7589   -2.1320    2.0848 N.ar    1  LIG1       -0.2252
     20 N          -7.3671   -1.9781    1.5866 N.am    1  LIG1       -0.2642
     21 O         -13.4987   -7.0372    0.3522 O.2     1  LIG1       -0.2606
     22 O          -7.7120   -0.0905    2.9395 O.2     1  LIG1       -0.2772
     23 O          -2.6060   -1.2342    0.9349 O.2     1  LIG1       -0.4941
     24 O          -3.0754    1.2324    1.1395 O.2     1  LIG1       -0.4941
     25 O         -14.9756   -5.2772    0.4946 O.3     1  LIG1       -0.3155
     26 S          -8.7796   -3.9915    0.5897 S.2     1  LIG1       -0.0519
     27 S          -3.3379   -0.0522    0.5146 S.O2    1  LIG1       -0.2314
     28 H          -2.4998    0.5145   -5.0377 H       1  LIG1        0.0622
     29 H          -3.0694    2.4984   -3.6594 H       1  LIG1        0.0623
     30 H          -2.2997   -1.7174   -3.9750 H       1  LIG1        0.0623
     31 H         -14.1223   -3.6891    2.1338 H       1  LIG1        0.0632
     32 H         -12.4398   -2.0239    2.8286 H       1  LIG1        0.0646
     33 H          -3.4386    2.2554   -1.2283 H       1  LIG1        0.0641
     34 H          -2.6659   -1.9725   -1.5444 H       1  LIG1        0.0641
     35 H         -11.1241   -5.8600   -0.0800 H       1  LIG1        0.0644
     36 H         -16.9826   -5.5644    0.0721 H       1  LIG1        0.0536
     37 H         -16.1423   -6.9569    0.8226 H       1  LIG1        0.0536
     38 H         -15.8417   -6.5440   -0.8861 H       1  LIG1        0.0536
     39 H          -5.2723    0.3521    2.6617 H       1  LIG1        0.0380
     40 H          -4.9417   -1.3861    2.5628 H       1  LIG1        0.0380
     41 H          -5.2852   -1.2542    0.0406 H       1  LIG1        0.0470
     42 H          -5.5748    0.4893    0.2196 H       1  LIG1        0.0470
     43 H          -6.6390   -2.4726    1.0753 H       1  LIG1        0.1577
@<TRIPOS>BOND
     1     1     2   ar
     2     1     3   ar
     3     2     6   ar
     4     3     7   ar
     5     4     5   ar
     6     4     9   ar
     7     5    10   ar
     8     6    12   ar
     9     7    12   ar
    10     8     9   ar
    11     8    11   ar
    12     9    14    1
    13    10    11   ar
    14    10    19   ar
    15    11    26   ar
    16    12    27    1
    17    13    19   ar
    18    13    20    1
    19    13    26   ar
    20    14    21    2
    21    14    25    1
    22    15    17    1
    23    15    20   am
    24    15    22    2
    25    16    25    1
    26    17    18    1
    27    18    27    1
    28    23    27    2
    29    24    27    2
    30     1    28    1
    31     2    29    1
    32     3    30    1
    33     4    31    1
    34     5    32    1
    35     6    33    1
    36     7    34    1
    37     8    35    1
    38    16    36    1
    39    16    37    1
    40    16    38    1
    41    17    39    1
    42    17    40    1
    43    18    41    1
    44    18    42    1
    45    20    43    1
