@<TRIPOS>MOLECULE
ChEBML411655
 39 41 0 0 0
SMALL
USER_CHARGES

@<TRIPOS>ATOM
      1 C          -3.6561    1.0615   -2.6252 C.ar    1  LIG1       -0.0622
      2 C          -2.8625   -0.0239   -2.2541 C.ar    1  LIG1       -0.0618
      3 C          -4.8639    1.2991   -1.9689 C.ar    1  LIG1       -0.0618
      4 C          -3.2766   -0.8718   -1.2269 C.ar    1  LIG1       -0.0538
      5 C          -5.2780    0.4512   -0.9417 C.ar    1  LIG1       -0.0538
      6 C          -9.1265   -1.6943    2.3130 C.ar    1  LIG1       -0.0526
      7 C         -10.5174   -1.7992    2.3758 C.ar    1  LIG1       -0.0471
      8 C          -8.9820   -3.8613    1.2549 C.ar    1  LIG1       -0.0453
      9 C         -11.2409   -5.0649    0.8582 C.ar    1  LIG1       -0.0344
     10 C         -10.3904   -3.9979    1.3039 C.ar    1  LIG1       -0.0099
     11 C          -4.4844   -0.6342   -0.5707 C.ar    1  LIG1       -0.0043
     12 C          -8.3648   -2.7133    1.7588 C.ar    1  LIG1       -0.0036
     13 C         -11.1363   -2.9579    1.8668 C.ar    1  LIG1        0.0197
     14 C         -12.5737   -4.8175    1.0863 C.ar    1  LIG1        0.0775
     15 C         -13.6996   -5.6390    0.7809 C.2     1  LIG1        0.2724
     16 C          -4.9305   -1.5461    0.5341 C.3     1  LIG1       -0.0098
     17 C          -6.8796   -2.5853    1.7002 C.3     1  LIG1       -0.0097
     18 N         -14.9740   -5.1637    1.1145 N.am    1  LIG1       -0.1935
     19 N          -6.4092   -1.6442    0.6467 N.4     1  LIG1        0.2451
     20 O         -13.5713   -6.7573    0.2167 O.2     1  LIG1       -0.2690
     21 O         -16.0766   -5.9708    0.7991 O.3     1  LIG1       -0.2964
     22 S         -12.8246   -3.3073    1.8356 S.2     1  LIG1       -0.0838
     23 H          -3.3328    1.7225   -3.4241 H       1  LIG1        0.0622
     24 H          -1.9216   -0.2083   -2.7642 H       1  LIG1        0.0623
     25 H          -5.4814    2.1447   -2.2567 H       1  LIG1        0.0623
     26 H          -2.6519   -1.7152   -0.9447 H       1  LIG1        0.0628
     27 H          -6.2206    0.6440   -0.4361 H       1  LIG1        0.0628
     28 H          -8.6467   -0.8008    2.7051 H       1  LIG1        0.0628
     29 H         -11.1057   -0.9966    2.8113 H       1  LIG1        0.0635
     30 H          -8.3793   -4.6565    0.8215 H       1  LIG1        0.0634
     31 H         -10.8772   -5.9721    0.3903 H       1  LIG1        0.0643
     32 H          -4.5584   -2.5647    0.3813 H       1  LIG1        0.0868
     33 H          -4.5635   -1.1989    1.5060 H       1  LIG1        0.0868
     34 H          -6.4678   -2.2163    2.6493 H       1  LIG1        0.0868
     35 H          -6.3991   -3.5500    1.4888 H       1  LIG1        0.0868
     36 H         -15.0953   -4.2664    1.5686 H       1  LIG1        0.1839
     37 H          -6.7972   -0.7102    0.8342 H       1  LIG1        0.1990
     38 H          -6.7992   -1.9340   -0.2600 H       1  LIG1        0.1990
     39 H         -15.6237   -6.7273    0.3894 H       1  LIG1        0.2427
@<TRIPOS>BOND
     1     1     2   ar
     2     1     3   ar
     3     2     4   ar
     4     3     5   ar
     5     4    11   ar
     6     5    11   ar
     7     6     7   ar
     8     6    12   ar
     9     7    13   ar
    10     8    10   ar
    11     8    12   ar
    12     9    10   ar
    13     9    14   ar
    14    10    13   ar
    15    11    16    1
    16    12    17    1
    17    13    22   ar
    18    14    15    1
    19    14    22   ar
    20    15    18   am
    21    15    20    2
    22    16    19    1
    23    17    19    1
    24    18    21    1
    25     1    23    1
    26     2    24    1
    27     3    25    1
    28     4    26    1
    29     5    27    1
    30     6    28    1
    31     7    29    1
    32     8    30    1
    33     9    31    1
    34    16    32    1
    35    16    33    1
    36    17    34    1
    37    17    35    1
    38    18    36    1
    39    19    37    1
    40    19    38    1
    41    21    39    1
