@<TRIPOS>MOLECULE
ChEBML1274719
 34 36 0 0 0
SMALL
USER_CHARGES

@<TRIPOS>ATOM
      1 C         -11.4629   -5.5898    0.6016 C.ar    1  LIG1       -0.0525
      2 C         -10.1183   -5.2124    0.5421 C.ar    1  LIG1       -0.0396
      3 C         -14.3181   -5.9929    0.2498 C.ar    1  LIG1       -0.0359
      4 C         -14.6106   -4.7971    2.3159 C.ar    1  LIG1       -0.0359
      5 C         -12.0425   -3.5514    1.7874 C.ar    1  LIG1       -0.0451
      6 C          -9.9808   -2.0087    2.2045 C.ar    1  LIG1       -0.0254
      7 C         -15.6489   -6.3679    0.3410 C.ar    1  LIG1        0.0274
      8 C         -15.9283   -5.2254    2.3146 C.ar    1  LIG1        0.0274
      9 C         -10.6927   -3.1499    1.7397 C.ar    1  LIG1       -0.0016
     10 C         -12.4118   -4.7737    1.2141 C.ar    1  LIG1       -0.0175
     11 C         -13.7968   -5.1925    1.2602 C.ar    1  LIG1       -0.0153
     12 C          -9.7636   -3.9879    1.1195 C.ar    1  LIG1        0.0379
     13 C          -8.6579   -2.1733    1.8640 C.ar    1  LIG1        0.1046
     14 C          -7.5610   -1.2936    2.1177 C.2     1  LIG1        0.3070
     15 C          -5.9450    0.0154    0.1023 C.3     1  LIG1       -0.0409
     16 C          -5.3767   -0.8371    1.2167 C.3     1  LIG1        0.0539
     17 N         -16.4704   -6.0035    1.3510 N.ar    1  LIG1       -0.2646
     18 N          -8.5368   -3.3698    1.2097 N.ar    1  LIG1       -0.3094
     19 O          -7.6353   -0.1934    2.7123 O.2     1  LIG1       -0.2591
     20 O          -6.3678   -1.7829    1.6322 O.3     1  LIG1       -0.3114
     21 H         -11.7558   -6.5395    0.1578 H       1  LIG1        0.0630
     22 H          -9.3801   -5.8475    0.0641 H       1  LIG1        0.0643
     23 H         -13.7141   -6.3226   -0.5894 H       1  LIG1        0.0645
     24 H         -14.2388   -4.1724    3.1218 H       1  LIG1        0.0645
     25 H         -12.7812   -2.9125    2.2653 H       1  LIG1        0.0636
     26 H         -10.3963   -1.1605    2.7320 H       1  LIG1        0.0652
     27 H         -16.1030   -6.9935   -0.4206 H       1  LIG1        0.0840
     28 H         -16.6043   -4.9436    3.1149 H       1  LIG1        0.0840
     29 H          -6.2219   -0.6006   -0.7578 H       1  LIG1        0.0254
     30 H          -6.8301    0.5605    0.4464 H       1  LIG1        0.0254
     31 H          -5.2151    0.7652   -0.2205 H       1  LIG1        0.0254
     32 H          -5.1018   -0.2151    2.0737 H       1  LIG1        0.0570
     33 H          -4.4929   -1.3816    0.8710 H       1  LIG1        0.0570
     34 H          -7.6735   -3.7475    0.8440 H       1  LIG1        0.1530
@<TRIPOS>BOND
     1     1     2   ar
     2     1    10   ar
     3     2    12   ar
     4     3     7   ar
     5     3    11   ar
     6     4     8   ar
     7     4    11   ar
     8     5     9   ar
     9     5    10   ar
    10     6     9   ar
    11     6    13   ar
    12     7    17   ar
    13     8    17   ar
    14     9    12   ar
    15    10    11    1
    16    12    18   ar
    17    13    14    1
    18    13    18   ar
    19    14    19    2
    20    14    20    1
    21    15    16    1
    22    16    20    1
    23     1    21    1
    24     2    22    1
    25     3    23    1
    26     4    24    1
    27     5    25    1
    28     6    26    1
    29     7    27    1
    30     8    28    1
    31    15    29    1
    32    15    30    1
    33    15    31    1
    34    16    32    1
    35    16    33    1
    36    18    34    1
