@<TRIPOS>MOLECULE
ChEBML486725
 31 33 0 0 0
SMALL
USER_CHARGES

@<TRIPOS>ATOM
      1 C          -1.7559    0.7597   -3.3381 C.ar    1  LIG1       -0.0621
      2 C          -1.7214   -0.4602   -2.6627 C.ar    1  LIG1       -0.0604
      3 C          -2.8442    1.6169   -3.1747 C.ar    1  LIG1       -0.0604
      4 C          -2.7753   -0.8231   -1.8241 C.ar    1  LIG1       -0.0407
      5 C          -3.8981    1.2540   -2.3361 C.ar    1  LIG1       -0.0407
      6 C          -9.9259   -1.7573    2.8112 C.ar    1  LIG1       -0.0294
      7 C         -10.8206   -2.7936    2.5535 C.ar    1  LIG1       -0.0453
      8 C          -9.3107   -3.6928    0.8839 C.ar    1  LIG1       -0.0380
      9 C          -8.4078   -2.6571    1.1359 C.ar    1  LIG1        0.0075
     10 C          -3.8636    0.0340   -1.6607 C.ar    1  LIG1        0.0328
     11 C          -8.7304   -1.7039    2.0973 C.ar    1  LIG1        0.0930
     12 C         -10.5140   -3.7593    1.5923 C.ar    1  LIG1        0.0183
     13 C          -7.1430   -2.5415    0.4272 C.ar    1  LIG1       -0.0335
     14 C          -6.3113   -1.5326    0.7026 C.ar    1  LIG1        0.1108
     15 C          -6.6289   -0.5071    1.7186 C.ar    1  LIG1        0.3032
     16 C          -5.0612   -1.5006   -0.0671 C.2     1  LIG1        0.2534
     17 N          -4.9334   -0.3346   -0.8091 N.am    1  LIG1       -0.2811
     18 O          -5.8643    0.4178    1.9704 O.2     1  LIG1       -0.2600
     19 O          -4.2780   -2.4458    0.0026 O.2     1  LIG1       -0.2712
     20 O          -7.8462   -0.6438    2.3804 O.2     1  LIG1       -0.2735
     21 BR        -11.7333   -5.1626    1.2468 Br      1  LIG1       -0.0508
     22 H          -0.9351    1.0430   -3.9907 H       1  LIG1        0.0622
     23 H          -0.8739   -1.1274   -2.7890 H       1  LIG1        0.0623
     24 H          -2.8702    2.5672   -3.7001 H       1  LIG1        0.0623
     25 H          -2.7375   -1.7763   -1.3028 H       1  LIG1        0.0642
     26 H          -4.7409    1.9301   -2.2164 H       1  LIG1        0.0642
     27 H         -10.1625   -1.0067    3.5590 H       1  LIG1        0.0651
     28 H         -11.7535   -2.8366    3.1098 H       1  LIG1        0.0635
     29 H          -9.0772   -4.4472    0.1354 H       1  LIG1        0.0642
     30 H          -6.9117   -3.2958   -0.3189 H       1  LIG1        0.0640
     31 H          -5.6870    0.3470   -0.7459 H       1  LIG1        0.1560
@<TRIPOS>BOND
     1     1     2   ar
     2     1     3   ar
     3     2     4   ar
     4     3     5   ar
     5     4    10   ar
     6     5    10   ar
     7     6     7   ar
     8     6    11   ar
     9     7    12   ar
    10     8     9   ar
    11     8    12   ar
    12     9    11   ar
    13     9    13   ar
    14    10    17    1
    15    11    20   ar
    16    12    21    1
    17    13    14   ar
    18    14    15   ar
    19    14    16    1
    20    15    18    2
    21    15    20   ar
    22    16    17   am
    23    16    19    2
    24     1    22    1
    25     2    23    1
    26     3    24    1
    27     4    25    1
    28     5    26    1
    29     6    27    1
    30     7    28    1
    31     8    29    1
    32    13    30    1
    33    17    31    1
