@<TRIPOS>MOLECULE
ChEBML776676
 46 49 0 0 0
SMALL
USER_CHARGES

@<TRIPOS>ATOM
      1 C          -2.4050    0.8225   -3.5679 C.ar    1  LIG1       -0.0252
      2 C          -9.9363   -1.9970    1.9380 C.ar    1  LIG1       -0.0389
      3 C          -2.8784    1.5944   -2.5186 C.ar    1  LIG1        0.0322
      4 C          -2.5373   -0.5550   -3.4897 C.ar    1  LIG1        0.0322
      5 C         -10.7447   -3.0625    1.5598 C.ar    1  LIG1       -0.0368
      6 C          -8.5756   -2.0986    1.7109 C.ar    1  LIG1        0.0750
      7 C         -10.1247   -4.1149    0.9793 C.ar    1  LIG1       -0.0068
      8 C          -3.5503   -0.3224   -1.4362 C.ar    1  LIG1        0.2162
      9 C          -7.5136   -1.1327    2.0075 C.2     1  LIG1        0.2524
     10 C         -12.2560   -3.0541    1.8171 C.3     1  LIG1       -0.0270
     11 C         -10.7855   -5.3587    0.4285 C.3     1  LIG1       -0.0212
     12 C         -12.5614   -4.1972    2.7867 C.3     1  LIG1       -0.0492
     13 C         -11.3536   -6.1398    1.6255 C.3     1  LIG1       -0.0487
     14 C         -12.6562   -5.5260    2.0819 C.3     1  LIG1       -0.0526
     15 C          -4.5290    0.1733    0.5718 C.3     1  LIG1        0.0302
     16 C          -5.3760   -1.5506   -0.8086 C.3     1  LIG1        0.0302
     17 C          -5.1725   -0.4131    1.8325 C.3     1  LIG1        0.0304
     18 C          -6.0737   -2.2548    0.3653 C.3     1  LIG1        0.0304
     19 N          -3.4391    0.9972   -1.4799 N.ar    1  LIG1       -0.2235
     20 N          -3.1035   -1.0891   -2.4202 N.ar    1  LIG1       -0.2235
     21 N          -4.1419   -0.9144   -0.3339 N.pl3   1  LIG1       -0.2969
     22 N          -6.3049   -1.2601    1.4250 N.am    1  LIG1       -0.2942
     23 O          -7.7218   -0.2186    2.7836 O.2     1  LIG1       -0.2710
     24 S          -8.4528   -3.7116    0.9545 S.2     1  LIG1       -0.0887
     25 H          -1.9432    1.2844   -4.4282 H       1  LIG1        0.0655
     26 H         -10.3585   -1.1149    2.3965 H       1  LIG1        0.0640
     27 H          -2.7910    2.6704   -2.5487 H       1  LIG1        0.0841
     28 H          -2.1790   -1.1848   -4.2906 H       1  LIG1        0.0841
     29 H         -12.5510   -2.1033    2.2607 H       1  LIG1        0.0316
     30 H         -12.7921   -3.2092    0.8808 H       1  LIG1        0.0316
     31 H         -11.5920   -5.0812   -0.2501 H       1  LIG1        0.0321
     32 H         -10.0500   -5.9680   -0.0971 H       1  LIG1        0.0321
     33 H         -13.5078   -3.9935    3.2877 H       1  LIG1        0.0270
     34 H         -11.7702   -4.2485    3.5346 H       1  LIG1        0.0270
     35 H         -11.5260   -7.1752    1.3317 H       1  LIG1        0.0270
     36 H         -10.6361   -6.1150    2.4458 H       1  LIG1        0.0270
     37 H         -13.2949   -5.4000    1.2076 H       1  LIG1        0.0267
     38 H         -13.1447   -6.2312    2.7544 H       1  LIG1        0.0267
     39 H          -5.2430    0.8266    0.0701 H       1  LIG1        0.0486
     40 H          -3.6448    0.7472    0.8488 H       1  LIG1        0.0486
     41 H          -6.0382   -0.7919   -1.2259 H       1  LIG1        0.0486
     42 H          -5.1338   -2.2836   -1.5781 H       1  LIG1        0.0486
     43 H          -5.5295    0.3944    2.4720 H       1  LIG1        0.0486
     44 H          -4.4407   -1.0135    2.3728 H       1  LIG1        0.0486
     45 H          -5.4401   -3.0560    0.7459 H       1  LIG1        0.0486
     46 H          -7.0270   -2.6663    0.0338 H       1  LIG1        0.0486
@<TRIPOS>BOND
     1     1     3   ar
     2     1     4   ar
     3     2     5   ar
     4     2     6   ar
     5     3    19   ar
     6     4    20   ar
     7     5     7   ar
     8     5    10    1
     9     6     9    1
    10     6    24   ar
    11     7    11    1
    12     7    24   ar
    13     8    19   ar
    14     8    20   ar
    15     8    21    1
    16     9    22   am
    17     9    23    2
    18    10    12    1
    19    11    13    1
    20    12    14    1
    21    13    14    1
    22    15    17    1
    23    15    21    1
    24    16    18    1
    25    16    21    1
    26    17    22    1
    27    18    22    1
    28     1    25    1
    29     2    26    1
    30     3    27    1
    31     4    28    1
    32    10    29    1
    33    10    30    1
    34    11    31    1
    35    11    32    1
    36    12    33    1
    37    12    34    1
    38    13    35    1
    39    13    36    1
    40    14    37    1
    41    14    38    1
    42    15    39    1
    43    15    40    1
    44    16    41    1
    45    16    42    1
    46    17    43    1
    47    17    44    1
    48    18    45    1
    49    18    46    1
