@<TRIPOS>MOLECULE
ChEBML122386
 43 46 0 0 0
SMALL
USER_CHARGES

@<TRIPOS>ATOM
      1 C          -1.9474   -0.6979   -2.9506 C.ar    1  LIG1       -0.0573
      2 C          -2.1127    0.5606   -3.5181 C.ar    1  LIG1       -0.0437
      3 C         -10.8132   -4.2353   -0.4212 C.ar    1  LIG1       -0.0373
      4 C         -12.0605   -4.8302   -0.2112 C.ar    1  LIG1       -0.0244
      5 C          -2.7717   -1.0964   -1.9041 C.ar    1  LIG1       -0.0217
      6 C         -12.0606   -4.1437    2.1181 C.ar    1  LIG1       -0.0171
      7 C          -9.9126   -2.8184    2.7767 C.ar    1  LIG1       -0.0304
      8 C          -3.1091    1.3766   -3.0070 C.ar    1  LIG1        0.0290
      9 C         -10.8029   -3.5367    1.9305 C.ar    1  LIG1        0.0004
     10 C         -10.2094   -3.5963    0.6677 C.ar    1  LIG1        0.0378
     11 C         -12.6765   -4.7864    1.0380 C.ar    1  LIG1        0.1235
     12 C          -8.8161   -2.4628    2.0256 C.ar    1  LIG1        0.0524
     13 C          -3.7385   -0.2061   -1.4652 C.ar    1  LIG1        0.1202
     14 C          -5.3410   -1.8240   -0.6981 C.3     1  LIG1        0.0523
     15 C          -5.2530    0.4663    0.2727 C.3     1  LIG1        0.0523
     16 C          -5.9984   -2.3369    0.5760 C.3     1  LIG1       -0.0177
     17 C          -5.9156   -0.0511    1.5432 C.3     1  LIG1       -0.0177
     18 C          -7.5781   -1.7015    2.3982 C.3     1  LIG1        0.0052
     19 N          -3.9291    1.0245   -1.9916 N.ar    1  LIG1       -0.2414
     20 N          -9.0045   -2.9362    0.7548 N.ar    1  LIG1       -0.3135
     21 N          -4.5508   -0.6167   -0.4232 N.pl3   1  LIG1       -0.3054
     22 N          -6.7985   -1.2247    1.2050 N.4     1  LIG1        0.2525
     23 F         -13.8728   -5.3659    1.2086 F       1  LIG1       -0.2069
     24 H          -1.1767   -1.3667   -3.3225 H       1  LIG1        0.0624
     25 H          -1.4817    0.8927   -4.3345 H       1  LIG1        0.0639
     26 H         -10.3339   -4.2698   -1.3938 H       1  LIG1        0.0644
     27 H         -12.5566   -5.3354   -1.0359 H       1  LIG1        0.0654
     28 H          -2.6500   -2.0770   -1.4558 H       1  LIG1        0.0659
     29 H         -12.5523   -4.1167    3.0863 H       1  LIG1        0.0660
     30 H         -10.0608   -2.5880    3.8233 H       1  LIG1        0.0648
     31 H          -3.2792    2.3676   -3.4150 H       1  LIG1        0.0840
     32 H          -4.6968   -2.6144   -1.1028 H       1  LIG1        0.0524
     33 H          -6.1066   -1.6025   -1.4533 H       1  LIG1        0.0524
     34 H          -6.0089    0.9063   -0.3910 H       1  LIG1        0.0524
     35 H          -4.5488    1.2624    0.5444 H       1  LIG1        0.0524
     36 H          -6.6874   -3.1580    0.3530 H       1  LIG1        0.0831
     37 H          -5.2568   -2.6685    1.3119 H       1  LIG1        0.0831
     38 H          -5.1766   -0.3941    2.2765 H       1  LIG1        0.0831
     39 H          -6.5473    0.7221    1.9926 H       1  LIG1        0.0831
     40 H          -7.8229   -0.8127    2.9897 H       1  LIG1        0.0882
     41 H          -6.8970   -2.3205    2.9922 H       1  LIG1        0.0882
     42 H          -8.3548   -2.8206   -0.0109 H       1  LIG1        0.1527
     43 H          -7.4887   -0.9058    0.5111 H       1  LIG1        0.2009
@<TRIPOS>BOND
     1     1     2   ar
     2     1     5   ar
     3     2     8   ar
     4     3     4   ar
     5     3    10   ar
     6     4    11   ar
     7     5    13   ar
     8     6     9   ar
     9     6    11   ar
    10     7     9   ar
    11     7    12   ar
    12     8    19   ar
    13     9    10   ar
    14    10    20   ar
    15    11    23    1
    16    12    18    1
    17    12    20   ar
    18    13    19   ar
    19    13    21    1
    20    14    16    1
    21    14    21    1
    22    15    17    1
    23    15    21    1
    24    16    22    1
    25    17    22    1
    26    18    22    1
    27     1    24    1
    28     2    25    1
    29     3    26    1
    30     4    27    1
    31     5    28    1
    32     6    29    1
    33     7    30    1
    34     8    31    1
    35    14    32    1
    36    14    33    1
    37    15    34    1
    38    15    35    1
    39    16    36    1
    40    16    37    1
    41    17    38    1
    42    17    39    1
    43    18    40    1
    44    18    41    1
    45    20    42    1
    46    22    43    1
