@<TRIPOS>MOLECULE
ChEBML234195
 45 48 0 0 0
SMALL
USER_CHARGES

@<TRIPOS>ATOM
      1 C         -14.1718   -4.6433    0.7087 C.1     1  LIG1        0.0991
      2 C         -11.8982   -5.2274    0.0369 C.ar    1  LIG1       -0.0425
      3 C         -10.5159   -5.0215    0.0665 C.ar    1  LIG1       -0.0389
      4 C          -4.1294    0.8925   -2.3629 C.ar    1  LIG1       -0.0380
      5 C          -2.3772   -0.6261   -1.6840 C.ar    1  LIG1       -0.0380
      6 C          -3.3189    1.3665   -3.3944 C.ar    1  LIG1       -0.0245
      7 C          -1.5668   -0.1521   -2.7156 C.ar    1  LIG1       -0.0245
      8 C         -12.2675   -3.3550    1.5385 C.ar    1  LIG1       -0.0352
      9 C         -10.0488   -2.1805    2.2473 C.ar    1  LIG1       -0.0304
     10 C         -12.7623   -4.4082    0.7607 C.ar    1  LIG1        0.0527
     11 C         -10.8776   -3.1282    1.5839 C.ar    1  LIG1       -0.0012
     12 C         -10.0355   -3.9649    0.8483 C.ar    1  LIG1        0.0377
     13 C          -3.6585   -0.1038   -1.5075 C.ar    1  LIG1        0.0291
     14 C          -2.0376    0.8442   -3.5709 C.ar    1  LIG1        0.1229
     15 C          -8.7440   -2.4554    1.9082 C.ar    1  LIG1        0.0524
     16 C          -5.3124   -1.7161   -0.8450 C.3     1  LIG1        0.0509
     17 C          -5.0978    0.4691    0.3272 C.3     1  LIG1        0.0509
     18 C          -5.9604   -2.3160    0.3955 C.3     1  LIG1       -0.0177
     19 C          -5.7512   -0.1345    1.5639 C.3     1  LIG1       -0.0177
     20 C          -7.4643   -1.7849    2.3128 C.3     1  LIG1        0.0052
     21 N         -15.3157   -4.8342    0.6663 N.1     1  LIG1       -0.1924
     22 N          -8.7462   -3.5331    1.0638 N.ar    1  LIG1       -0.3135
     23 N          -4.4623   -0.5739   -0.4843 N.pl3   1  LIG1       -0.3203
     24 N          -6.6939   -1.2336    1.1459 N.4     1  LIG1        0.2525
     25 F          -1.2593    1.2993   -4.5614 F       1  LIG1       -0.2069
     26 H         -12.2889   -6.0448   -0.5663 H       1  LIG1        0.0637
     27 H          -9.8441   -5.6597   -0.4976 H       1  LIG1        0.0643
     28 H          -5.1263    1.3063   -2.2347 H       1  LIG1        0.0643
     29 H          -2.0001   -1.4024   -1.0232 H       1  LIG1        0.0643
     30 H          -3.6853    2.1419   -4.0607 H       1  LIG1        0.0654
     31 H          -0.5690   -0.5583   -2.8532 H       1  LIG1        0.0654
     32 H         -12.9399   -2.7145    2.1043 H       1  LIG1        0.0643
     33 H         -10.3751   -1.3838    2.9020 H       1  LIG1        0.0648
     34 H          -4.7145   -2.4924   -1.3383 H       1  LIG1        0.0524
     35 H          -6.0858   -1.3938   -1.5545 H       1  LIG1        0.0524
     36 H          -5.8494    1.0000   -0.2717 H       1  LIG1        0.0524
     37 H          -4.3521    1.2063    0.6498 H       1  LIG1        0.0524
     38 H          -6.6908   -3.0831    0.1187 H       1  LIG1        0.0831
     39 H          -5.2164   -2.7451    1.0766 H       1  LIG1        0.0831
     40 H          -5.0104   -0.5746    2.2413 H       1  LIG1        0.0831
     41 H          -6.3363    0.6200    2.0998 H       1  LIG1        0.0831
     42 H          -7.6542   -0.9448    2.9894 H       1  LIG1        0.0882
     43 H          -6.7971   -2.4842    2.8281 H       1  LIG1        0.0882
     44 H          -7.9224   -3.9534    0.6556 H       1  LIG1        0.1527
     45 H          -7.3862   -0.8231    0.5041 H       1  LIG1        0.2009
@<TRIPOS>BOND
     1     1    10    1
     2     1    21    3
     3     2     3   ar
     4     2    10   ar
     5     3    12   ar
     6     4     6   ar
     7     4    13   ar
     8     5     7   ar
     9     5    13   ar
    10     6    14   ar
    11     7    14   ar
    12     8    10   ar
    13     8    11   ar
    14     9    11   ar
    15     9    15   ar
    16    11    12   ar
    17    12    22   ar
    18    13    23    1
    19    14    25    1
    20    15    20    1
    21    15    22   ar
    22    16    18    1
    23    16    23    1
    24    17    19    1
    25    17    23    1
    26    18    24    1
    27    19    24    1
    28    20    24    1
    29     2    26    1
    30     3    27    1
    31     4    28    1
    32     5    29    1
    33     6    30    1
    34     7    31    1
    35     8    32    1
    36     9    33    1
    37    16    34    1
    38    16    35    1
    39    17    36    1
    40    17    37    1
    41    18    38    1
    42    18    39    1
    43    19    40    1
    44    19    41    1
    45    20    42    1
    46    20    43    1
    47    22    44    1
    48    24    45    1
