@<TRIPOS>MOLECULE
ChEBML53308
 59 62 0 0 0
SMALL
USER_CHARGES

@<TRIPOS>ATOM
      1 C          -2.3421    0.9857   -3.4828 C.ar    1  LIG1       -0.0418
      2 C         -10.3734   -5.1692    0.4901 C.ar    1  LIG1       -0.0383
      3 C          -1.7675   -0.1949   -3.0314 C.ar    1  LIG1       -0.0360
      4 C         -11.6888   -5.5222    0.6832 C.ar    1  LIG1       -0.0388
      5 C         -12.0817   -3.5159    1.9542 C.ar    1  LIG1       -0.0315
      6 C          -9.9793   -2.0265    2.1775 C.ar    1  LIG1       -0.0261
      7 C          -3.5256    1.4205   -2.9216 C.ar    1  LIG1        0.0292
      8 C         -10.7440   -3.1447    1.7650 C.ar    1  LIG1       -0.0003
      9 C          -9.8847   -3.9807    1.0261 C.ar    1  LIG1        0.0379
     10 C         -12.5451   -4.6984    1.4143 C.ar    1  LIG1        0.0332
     11 C          -2.4108   -0.9002   -2.0230 C.ar    1  LIG1        0.0672
     12 C          -8.7166   -2.1907    1.7032 C.ar    1  LIG1        0.0947
     13 C          -3.6092   -0.4012   -1.5065 C.ar    1  LIG1        0.1412
     14 C          -7.6014   -1.2539    1.9060 C.2     1  LIG1        0.2599
     15 C         -14.5368   -5.7416    0.6312 C.2     1  LIG1        0.2128
     16 C          -4.4765   -0.1521    0.6039 C.3     1  LIG1        0.0288
     17 C          -5.5935   -1.4504   -1.0274 C.3     1  LIG1        0.0288
     18 C          -5.1817   -0.8612    1.7643 C.3     1  LIG1        0.0303
     19 C          -6.3724   -2.2452    0.0255 C.3     1  LIG1        0.0303
     20 C         -15.9305   -6.2580    0.8804 C.3     1  LIG1        0.0130
     21 C           0.5742   -2.0142   -1.5229 C.3     1  LIG1       -0.0470
     22 C          -0.6284   -4.1694   -1.9115 C.3     1  LIG1       -0.0470
     23 C          -0.6642   -2.6585   -2.1490 C.3     1  LIG1        0.0142
     24 N          -4.1175    0.7311   -1.9636 N.ar    1  LIG1       -0.2394
     25 N          -8.6490   -3.3748    0.9953 N.ar    1  LIG1       -0.3101
     26 N          -4.2707   -1.0984   -0.4985 N.pl3   1  LIG1       -0.3112
     27 N          -6.4346   -1.4452    1.2593 N.am    1  LIG1       -0.2936
     28 N         -13.8821   -5.0736    1.6015 N.am    1  LIG1       -0.2856
     29 N          -1.8700   -2.0961   -1.5357 N.pl3   1  LIG1       -0.3393
     30 O          -7.7320   -0.3063    2.6575 O.2     1  LIG1       -0.2701
     31 O         -14.0043   -5.9271   -0.4427 O.2     1  LIG1       -0.2776
     32 H          -1.8672    1.5586   -4.2656 H       1  LIG1        0.0639
     33 H          -9.7191   -5.8144   -0.0775 H       1  LIG1        0.0643
     34 H          -0.8416   -0.5559   -3.4543 H       1  LIG1        0.0644
     35 H         -12.0619   -6.4455    0.2653 H       1  LIG1        0.0643
     36 H         -12.7466   -2.8803    2.5200 H       1  LIG1        0.0649
     37 H         -10.3357   -1.1930    2.7644 H       1  LIG1        0.0651
     38 H          -3.9741    2.3388   -3.2711 H       1  LIG1        0.0840
     39 H          -3.5119    0.2265    0.9421 H       1  LIG1        0.0485
     40 H          -5.0915    0.6791    0.2588 H       1  LIG1        0.0485
     41 H          -6.1403   -0.5400   -1.2729 H       1  LIG1        0.0485
     42 H          -5.4758   -2.0562   -1.9258 H       1  LIG1        0.0485
     43 H          -4.5405   -1.6508    2.1562 H       1  LIG1        0.0486
     44 H          -5.4036   -0.1425    2.5532 H       1  LIG1        0.0486
     45 H          -5.8632   -3.1881    0.2247 H       1  LIG1        0.0486
     46 H          -7.3819   -2.4419   -0.3356 H       1  LIG1        0.0486
     47 H         -16.5904   -5.4232    1.1167 H       1  LIG1        0.0328
     48 H         -16.2942   -6.7673   -0.0120 H       1  LIG1        0.0328
     49 H         -15.9148   -6.9569    1.7166 H       1  LIG1        0.0328
     50 H           0.5851   -2.2133   -0.4513 H       1  LIG1        0.0249
     51 H           1.4715   -2.4326   -1.9793 H       1  LIG1        0.0249
     52 H           0.5487   -0.9377   -1.6922 H       1  LIG1        0.0249
     53 H          -0.6175   -4.3686   -0.8399 H       1  LIG1        0.0249
     54 H          -1.5107   -4.6284   -2.3574 H       1  LIG1        0.0249
     55 H           0.2688   -4.5878   -2.3678 H       1  LIG1        0.0249
     56 H          -0.6750   -2.4592   -3.2206 H       1  LIG1        0.0497
     57 H          -7.8600   -3.7232    0.5514 H       1  LIG1        0.1529
     58 H         -14.3365   -4.8526    2.4295 H       1  LIG1        0.1556
     59 H          -2.2936   -2.5523   -0.7918 H       1  LIG1        0.1469
@<TRIPOS>BOND
     1     1     3   ar
     2     1     7   ar
     3     2     4   ar
     4     2     9   ar
     5     3    11   ar
     6     4    10   ar
     7     5     8   ar
     8     5    10   ar
     9     6     8   ar
    10     6    12   ar
    11     7    24   ar
    12     8     9   ar
    13     9    25   ar
    14    10    28    1
    15    11    13   ar
    16    11    29    1
    17    12    14    1
    18    12    25   ar
    19    13    24   ar
    20    13    26    1
    21    14    27   am
    22    14    30    2
    23    15    20    1
    24    15    28   am
    25    15    31    2
    26    16    18    1
    27    16    26    1
    28    17    19    1
    29    17    26    1
    30    18    27    1
    31    19    27    1
    32    21    23    1
    33    22    23    1
    34    23    29    1
    35     1    32    1
    36     2    33    1
    37     3    34    1
    38     4    35    1
    39     5    36    1
    40     6    37    1
    41     7    38    1
    42    16    39    1
    43    16    40    1
    44    17    41    1
    45    17    42    1
    46    18    43    1
    47    18    44    1
    48    19    45    1
    49    19    46    1
    50    20    47    1
    51    20    48    1
    52    20    49    1
    53    21    50    1
    54    21    51    1
    55    21    52    1
    56    22    53    1
    57    22    54    1
    58    22    55    1
    59    23    56    1
    60    25    57    1
    61    28    58    1
    62    29    59    1
