@<TRIPOS>MOLECULE
ChEBML1137481
 55 58 0 0 0
SMALL
USER_CHARGES

@<TRIPOS>ATOM
      1 C          -3.6528    1.2135   -3.2082 C.ar    1  LIG1       -0.0602
      2 C          -2.3856    0.8225   -3.5990 C.ar    1  LIG1       -0.0595
      3 C         -12.9823   -2.5091    1.8874 C.ar    1  LIG1       -0.0510
      4 C         -12.5294   -4.6774    0.9380 C.ar    1  LIG1       -0.0510
      5 C          -4.2546    0.6236   -2.1126 C.ar    1  LIG1       -0.0382
      6 C          -1.7136   -0.1605   -2.8959 C.ar    1  LIG1       -0.0299
      7 C         -14.3331   -2.7929    1.8768 C.ar    1  LIG1       -0.0407
      8 C         -13.8819   -4.9534    0.9376 C.ar    1  LIG1       -0.0407
      9 C         -10.0163   -1.9652    1.8824 C.ar    1  LIG1       -0.0059
     10 C         -12.0710   -3.4532    1.4194 C.ar    1  LIG1        0.0019
     11 C          -3.5886   -0.3671   -1.4056 C.ar    1  LIG1        0.0594
     12 C          -2.3094   -0.7563   -1.7966 C.ar    1  LIG1        0.0957
     13 C         -14.7823   -4.0123    1.4031 C.ar    1  LIG1        0.0357
     14 C         -10.6172   -3.1532    1.4279 C.ar    1  LIG1        0.0905
     15 C          -8.6595   -2.1479    1.6952 C.ar    1  LIG1        0.1123
     16 C          -7.5890   -1.1895    2.0144 C.2     1  LIG1        0.2614
     17 C          -4.5882    0.1136    0.6099 C.3     1  LIG1        0.0275
     18 C          -5.4310   -1.5984   -0.7876 C.3     1  LIG1        0.0275
     19 C          -5.2438   -0.4779    1.8619 C.3     1  LIG1        0.0303
     20 C          -6.1423   -2.3028    0.3721 C.3     1  LIG1        0.0303
     21 C          -0.3818   -1.8951   -1.7409 C.3     1  LIG1        0.0423
     22 C         -17.0433   -3.7721   -0.2345 C.3     1  LIG1        0.0099
     23 N          -9.6561   -3.9510    1.0123 N.ar    1  LIG1       -0.1834
     24 N          -8.5081   -3.3918    1.1496 N.ar    1  LIG1       -0.2326
     25 N          -4.1981   -0.9700   -0.2994 N.pl3   1  LIG1       -0.3255
     26 N          -6.3764   -1.3179    1.4403 N.am    1  LIG1       -0.2935
     27 O          -7.7987   -0.2817    2.7962 O.2     1  LIG1       -0.2701
     28 O         -16.5374   -5.7871    1.4666 O.2     1  LIG1       -0.4944
     29 O         -17.0052   -3.5473    2.4408 O.2     1  LIG1       -0.4944
     30 O          -1.6493   -1.7230   -1.1039 O.3     1  LIG1       -0.3473
     31 S         -16.5080   -4.3683    1.3929 S.O2    1  LIG1       -0.2348
     32 H          -4.1737    1.9820   -3.7601 H       1  LIG1        0.0623
     33 H          -1.9191    1.2865   -4.4555 H       1  LIG1        0.0623
     34 H         -12.6325   -1.5570    2.2584 H       1  LIG1        0.0630
     35 H         -11.8275   -5.4110    0.5699 H       1  LIG1        0.0630
     36 H          -5.2445    0.9310   -1.8092 H       1  LIG1        0.0643
     37 H          -0.7238   -0.4636   -3.2039 H       1  LIG1        0.0651
     38 H         -15.0403   -2.0618    2.2396 H       1  LIG1        0.0641
     39 H         -14.2379   -5.9041    0.5691 H       1  LIG1        0.0641
     40 H         -10.5102   -1.0957    2.2906 H       1  LIG1        0.0668
     41 H          -3.7038    0.6821    0.8974 H       1  LIG1        0.0485
     42 H          -5.2955    0.7728    0.1066 H       1  LIG1        0.0485
     43 H          -6.0868   -0.8347   -1.2055 H       1  LIG1        0.0485
     44 H          -5.1856   -2.3277   -1.5597 H       1  LIG1        0.0485
     45 H          -4.5187   -1.0846    2.4042 H       1  LIG1        0.0486
     46 H          -5.6026    0.3270    2.5034 H       1  LIG1        0.0486
     47 H          -5.5167   -3.1118    0.7495 H       1  LIG1        0.0486
     48 H          -7.0953   -2.7049    0.0284 H       1  LIG1        0.0486
     49 H          -0.5339   -2.1971   -2.7771 H       1  LIG1        0.0535
     50 H           0.1691   -0.9550   -1.7136 H       1  LIG1        0.0535
     51 H           0.1862   -2.6644   -1.2178 H       1  LIG1        0.0535
     52 H         -16.5019   -4.3082   -1.0139 H       1  LIG1        0.0429
     53 H         -18.1132   -3.9450   -0.3508 H       1  LIG1        0.0429
     54 H         -16.8366   -2.7051   -0.3166 H       1  LIG1        0.0429
     55 H          -7.6598   -3.7936    0.9053 H       1  LIG1        0.1757
@<TRIPOS>BOND
     1     1     2   ar
     2     1     5   ar
     3     2     6   ar
     4     3     7   ar
     5     3    10   ar
     6     4     8   ar
     7     4    10   ar
     8     5    11   ar
     9     6    12   ar
    10     7    13   ar
    11     8    13   ar
    12     9    14   ar
    13     9    15   ar
    14    10    14    1
    15    11    12   ar
    16    11    25    1
    17    12    30    1
    18    13    31    1
    19    14    23   ar
    20    15    16    1
    21    15    24   ar
    22    16    26   am
    23    16    27    2
    24    17    19    1
    25    17    25    1
    26    18    20    1
    27    18    25    1
    28    19    26    1
    29    20    26    1
    30    21    30    1
    31    22    31    1
    32    23    24   ar
    33    28    31    2
    34    29    31    2
    35     1    32    1
    36     2    33    1
    37     3    34    1
    38     4    35    1
    39     5    36    1
    40     6    37    1
    41     7    38    1
    42     8    39    1
    43     9    40    1
    44    17    41    1
    45    17    42    1
    46    18    43    1
    47    18    44    1
    48    19    45    1
    49    19    46    1
    50    20    47    1
    51    20    48    1
    52    21    49    1
    53    21    50    1
    54    21    51    1
    55    22    52    1
    56    22    53    1
    57    22    54    1
    58    24    55    1
