@<TRIPOS>MOLECULE
ChEBML2179
 42 45 0 0 0
SMALL
USER_CHARGES

@<TRIPOS>ATOM
      1 C          -3.1112   -1.2344   -2.3108 C.ar    1  LIG1       -0.0615
      2 C          -2.6512   -0.1926   -1.5078 C.ar    1  LIG1       -0.0603
      3 C          -4.3185   -1.8813   -2.0230 C.ar    1  LIG1       -0.0530
      4 C          -3.3803    0.2353   -0.3947 C.ar    1  LIG1       -0.0402
      5 C         -10.2182   -5.2436    0.5955 C.ar    1  LIG1       -0.0376
      6 C         -11.5500   -5.6439    0.7366 C.ar    1  LIG1       -0.0292
      7 C         -12.1410   -3.5204    1.7555 C.ar    1  LIG1       -0.0219
      8 C          -6.3043   -1.8840   -0.3317 C.ar    1  LIG1       -0.0276
      9 C         -10.1063   -1.9008    1.9588 C.ar    1  LIG1       -0.0275
     10 C          -5.0708   -1.4672   -0.9060 C.ar    1  LIG1       -0.0022
     11 C         -10.8043   -3.0948    1.6237 C.ar    1  LIG1        0.0004
     12 C          -4.5854   -0.4206   -0.1191 C.ar    1  LIG1        0.0378
     13 C          -9.8756   -3.9644    1.0480 C.ar    1  LIG1        0.0379
     14 C         -12.4983   -4.7973    1.3073 C.ar    1  LIG1        0.0861
     15 C          -6.5393   -1.0972    0.7722 C.ar    1  LIG1        0.0811
     16 C          -8.7919   -2.0658    1.5872 C.ar    1  LIG1        0.0811
     17 C          -7.7100   -1.1424    1.7216 C.2     1  LIG1        0.2206
     18 C         -14.6015   -4.9116    0.3246 C.2     1  LIG1        0.2921
     19 C         -16.1416   -7.0577   -1.1059 C.3     1  LIG1        0.0362
     20 C         -15.9981   -5.4201    0.5735 C.3     1  LIG1        0.1325
     21 N          -5.4971   -0.2174    0.8921 N.ar    1  LIG1       -0.3112
     22 N          -8.6625   -3.3134    1.0386 N.ar    1  LIG1       -0.3112
     23 O          -7.6797   -0.3069    2.6552 O.2     1  LIG1       -0.2856
     24 O         -14.2352   -4.3244   -0.6846 O.2     1  LIG1       -0.2634
     25 O         -13.7893   -5.2164    1.4312 O.3     1  LIG1       -0.2763
     26 O         -16.5800   -5.7768   -0.6646 O.3     1  LIG1       -0.3742
     27 H          -2.5269   -1.5489   -3.1717 H       1  LIG1        0.0623
     28 H          -1.7107    0.2954   -1.7497 H       1  LIG1        0.0623
     29 H          -4.6657   -2.6919   -2.6578 H       1  LIG1        0.0629
     30 H          -3.0218    1.0462    0.2306 H       1  LIG1        0.0642
     31 H          -9.4807   -5.9032    0.1507 H       1  LIG1        0.0643
     32 H         -11.8427   -6.6335    0.3929 H       1  LIG1        0.0651
     33 H         -12.8866   -2.8657    2.1987 H       1  LIG1        0.0657
     34 H          -6.9479   -2.6757   -0.6914 H       1  LIG1        0.0651
     35 H         -10.5253   -1.0175    2.4225 H       1  LIG1        0.0651
     36 H         -16.6126   -7.2952   -2.0628 H       1  LIG1        0.0530
     37 H         -16.4066   -7.8114   -0.3602 H       1  LIG1        0.0530
     38 H         -15.0564   -7.0382   -1.2315 H       1  LIG1        0.0530
     39 H         -15.9561   -6.3055    1.2135 H       1  LIG1        0.0677
     40 H         -16.5982   -4.6299    1.0326 H       1  LIG1        0.0677
     41 H          -5.4064    0.4809    1.6174 H       1  LIG1        0.1529
     42 H          -7.8027   -3.7035    0.6777 H       1  LIG1        0.1529
@<TRIPOS>BOND
     1     1     2   ar
     2     1     3   ar
     3     2     4   ar
     4     3    10   ar
     5     4    12   ar
     6     5     6   ar
     7     5    13   ar
     8     6    14   ar
     9     7    11   ar
    10     7    14   ar
    11     8    10   ar
    12     8    15   ar
    13     9    11   ar
    14     9    16   ar
    15    10    12   ar
    16    11    13   ar
    17    12    21   ar
    18    13    22   ar
    19    14    25    1
    20    15    17    1
    21    15    21   ar
    22    16    17    1
    23    16    22   ar
    24    17    23    2
    25    18    20    1
    26    18    24    2
    27    18    25    1
    28    19    26    1
    29    20    26    1
    30     1    27    1
    31     2    28    1
    32     3    29    1
    33     4    30    1
    34     5    31    1
    35     6    32    1
    36     7    33    1
    37     8    34    1
    38     9    35    1
    39    19    36    1
    40    19    37    1
    41    19    38    1
    42    20    39    1
    43    20    40    1
    44    21    41    1
    45    22    42    1
