@<TRIPOS>MOLECULE
ChEBML763411
 46 49 0 0 0
SMALL
USER_CHARGES

@<TRIPOS>ATOM
      1 C         -12.2588   -5.0141    1.0785 C.ar    1  LIG1       -0.0615
      2 C         -11.3432   -5.5966    0.2067 C.ar    1  LIG1       -0.0603
      3 C         -11.9189   -3.8736    1.8132 C.ar    1  LIG1       -0.0530
      4 C         -10.0636   -5.0591    0.0412 C.ar    1  LIG1       -0.0396
      5 C          -3.1698    1.4821   -2.4466 C.ar    1  LIG1       -0.0389
      6 C          -2.6171   -0.8643   -2.2864 C.ar    1  LIG1       -0.0389
      7 C          -2.3674    1.5937   -3.5820 C.ar    1  LIG1       -0.0391
      8 C          -1.8147   -0.7527   -3.4220 C.ar    1  LIG1       -0.0391
      9 C          -9.9776   -2.1898    2.2408 C.ar    1  LIG1       -0.0255
     10 C         -10.6345   -3.3130    1.6642 C.ar    1  LIG1       -0.0016
     11 C          -9.7301   -3.9147    0.7816 C.ar    1  LIG1        0.0463
     12 C          -3.2947    0.2531   -1.7987 C.ar    1  LIG1        0.0327
     13 C          -1.6899    0.4763   -4.0697 C.ar    1  LIG1        0.0282
     14 C          -8.7096   -2.1312    1.7076 C.ar    1  LIG1        0.1044
     15 C          -7.3871   -3.3593    0.1432 C.ar    1  LIG1        0.1104
     16 C          -7.6238   -1.2129    1.9289 C.ar    1  LIG1        0.2804
     17 C          -4.3432   -0.9987    0.1190 C.2     1  LIG1        0.2357
     18 C          -0.2148    1.8398   -5.5275 C.3     1  LIG1       -0.0003
     19 C          -0.6892   -0.5475   -6.0972 C.3     1  LIG1       -0.0003
     20 C          -5.2776   -0.6812    1.2704 C.3     1  LIG1        0.1150
     21 N          -6.3757   -2.5647    0.3020 N.ar    1  LIG1       -0.1700
     22 N          -8.5706   -3.1701    0.8327 N.ar    1  LIG1       -0.2534
     23 N          -6.4735   -1.5015    1.1779 N.ar    1  LIG1       -0.1780
     24 N          -4.1077    0.1406   -0.6458 N.am    1  LIG1       -0.2840
     25 N          -0.8794    0.5894   -5.2184 N.pl3   1  LIG1       -0.3369
     26 O          -7.7108   -0.2658    2.7082 O.2     1  LIG1       -0.2682
     27 O          -3.8810   -2.1215   -0.0573 O.2     1  LIG1       -0.2753
     28 H         -13.2483   -5.4491    1.1910 H       1  LIG1        0.0623
     29 H         -11.6265   -6.4830   -0.3553 H       1  LIG1        0.0623
     30 H         -12.6429   -3.4291    2.4904 H       1  LIG1        0.0629
     31 H          -9.3570   -5.5200   -0.6410 H       1  LIG1        0.0643
     32 H          -3.6932    2.3598   -2.0750 H       1  LIG1        0.0643
     33 H          -2.7073   -1.8268   -1.7894 H       1  LIG1        0.0643
     34 H          -2.2770    2.5562   -4.0792 H       1  LIG1        0.0643
     35 H          -1.2906   -1.6293   -3.7933 H       1  LIG1        0.0643
     36 H         -10.3906   -1.5019    2.9664 H       1  LIG1        0.0651
     37 H          -7.3096   -4.2072   -0.5552 H       1  LIG1        0.1037
     38 H           0.3652    1.7393   -6.4486 H       1  LIG1        0.0432
     39 H           0.4610    2.1195   -4.7148 H       1  LIG1        0.0432
     40 H          -0.9515    2.6365   -5.6606 H       1  LIG1        0.0432
     41 H          -0.0348   -0.2739   -6.9291 H       1  LIG1        0.0432
     42 H          -1.6502   -0.8790   -6.4997 H       1  LIG1        0.0432
     43 H          -0.2338   -1.3768   -5.5493 H       1  LIG1        0.0432
     44 H          -5.5565    0.3767    1.2393 H       1  LIG1        0.0592
     45 H          -4.7610   -0.8825    2.2141 H       1  LIG1        0.0592
     46 H          -4.5672    1.0003   -0.3528 H       1  LIG1        0.1557
@<TRIPOS>BOND
     1     1     2   ar
     2     1     3   ar
     3     2     4   ar
     4     3    10   ar
     5     4    11   ar
     6     5     7   ar
     7     5    12   ar
     8     6     8   ar
     9     6    12   ar
    10     7    13   ar
    11     8    13   ar
    12     9    10   ar
    13     9    14   ar
    14    10    11   ar
    15    11    22   ar
    16    12    24    1
    17    13    25    1
    18    14    16   ar
    19    14    22   ar
    20    15    21   ar
    21    15    22   ar
    22    16    23   ar
    23    16    26    2
    24    17    20    1
    25    17    24   am
    26    17    27    2
    27    18    25    1
    28    19    25    1
    29    20    23    1
    30    21    23   ar
    31     1    28    1
    32     2    29    1
    33     3    30    1
    34     4    31    1
    35     5    32    1
    36     6    33    1
    37     7    34    1
    38     8    35    1
    39     9    36    1
    40    15    37    1
    41    18    38    1
    42    18    39    1
    43    18    40    1
    44    19    41    1
    45    19    42    1
    46    19    43    1
    47    20    44    1
    48    20    45    1
    49    24    46    1
