@<TRIPOS>MOLECULE
ChEBML1023991
 42 44 0 0 0
SMALL
USER_CHARGES

@<TRIPOS>ATOM
      1 C          -4.1489   -0.2423   -3.2609 C.ar    1  LIG1       -0.0602
      2 C          -2.7453   -0.1855   -3.1552 C.ar    1  LIG1       -0.0595
      3 C          -4.9500   -0.3418   -2.1200 C.ar    1  LIG1       -0.0378
      4 C         -11.7137   -5.2297    0.3701 C.ar    1  LIG1       -0.0389
      5 C         -12.0095   -3.8124    2.3042 C.ar    1  LIG1       -0.0389
      6 C         -10.4063   -4.7645    0.2290 C.ar    1  LIG1       -0.0389
      7 C         -10.7020   -3.3472    2.1632 C.ar    1  LIG1       -0.0389
      8 C          -2.1190   -0.2273   -1.9065 C.ar    1  LIG1       -0.0292
      9 C          -4.3052   -0.3807   -0.9009 C.ar    1  LIG1        0.0662
     10 C         -12.5153   -4.7536    1.4076 C.ar    1  LIG1        0.0326
     11 C          -9.9004   -3.8232    1.1256 C.ar    1  LIG1        0.0326
     12 C          -2.9289   -0.3254   -0.7946 C.ar    1  LIG1        0.1058
     13 C          -3.6894   -0.4699    1.2287 C.ar    1  LIG1        0.1917
     14 C         -14.4995   -6.1535    0.7536 C.2     1  LIG1        0.2128
     15 C          -8.1260   -2.0969    1.3498 C.2     1  LIG1        0.2176
     16 C         -15.9078   -6.3865    1.2400 C.3     1  LIG1        0.0130
     17 C          -6.6383   -1.9728    1.0358 C.3     1  LIG1        0.0409
     18 C          -6.2007   -0.5526    0.7033 C.3     1  LIG1        0.0277
     19 N          -4.7886   -0.4732    0.3912 N.ar    1  LIG1       -0.2722
     20 N         -13.8231   -5.2185    1.5486 N.am    1  LIG1       -0.2857
     21 N          -8.5909   -3.3571    0.9846 N.am    1  LIG1       -0.2854
     22 O         -14.0666   -6.7509   -0.2266 O.2     1  LIG1       -0.2776
     23 O          -8.7630   -1.1736    1.8450 O.2     1  LIG1       -0.2772
     24 O          -2.4885   -0.3779    0.5201 O.2     1  LIG1       -0.2866
     25 S          -3.5987   -0.5556    2.8852 S.2     1  LIG1       -0.0069
     26 H          -4.6127   -0.2079   -4.2433 H       1  LIG1        0.0623
     27 H          -2.1440   -0.1078   -4.0572 H       1  LIG1        0.0623
     28 H          -6.0294   -0.3851   -2.2046 H       1  LIG1        0.0643
     29 H         -12.0971   -5.9632   -0.3346 H       1  LIG1        0.0643
     30 H         -12.6252   -3.4349    3.1166 H       1  LIG1        0.0643
     31 H          -9.7912   -5.1424   -0.5837 H       1  LIG1        0.0643
     32 H         -10.3185   -2.6132    2.8670 H       1  LIG1        0.0643
     33 H          -1.0394   -0.1834   -1.8223 H       1  LIG1        0.0651
     34 H         -16.5891   -5.6840    0.7517 H       1  LIG1        0.0328
     35 H         -15.9560   -6.2327    2.3219 H       1  LIG1        0.0328
     36 H         -16.2157   -7.4119    1.0150 H       1  LIG1        0.0328
     37 H          -6.4309   -2.6195    0.1744 H       1  LIG1        0.0381
     38 H          -6.0669   -2.3552    1.8904 H       1  LIG1        0.0381
     39 H          -6.3954    0.1326    1.5344 H       1  LIG1        0.0479
     40 H          -6.7407   -0.1887   -0.1763 H       1  LIG1        0.0479
     41 H         -14.3626   -4.8315    2.3316 H       1  LIG1        0.1556
     42 H          -7.9142   -3.9983    0.5771 H       1  LIG1        0.1556
@<TRIPOS>BOND
     1     1     2   ar
     2     1     3   ar
     3     2     8   ar
     4     3     9   ar
     5     4     6   ar
     6     4    10   ar
     7     5     7   ar
     8     5    10   ar
     9     6    11   ar
    10     7    11   ar
    11     8    12   ar
    12     9    12   ar
    13     9    19   ar
    14    10    20    1
    15    11    21    1
    16    12    24   ar
    17    13    19   ar
    18    13    24   ar
    19    13    25    2
    20    14    16    1
    21    14    20   am
    22    14    22    2
    23    15    17    1
    24    15    21   am
    25    15    23    2
    26    17    18    1
    27    18    19    1
    28     1    26    1
    29     2    27    1
    30     3    28    1
    31     4    29    1
    32     5    30    1
    33     6    31    1
    34     7    32    1
    35     8    33    1
    36    16    34    1
    37    16    35    1
    38    16    36    1
    39    17    37    1
    40    17    38    1
    41    18    39    1
    42    18    40    1
    43    20    41    1
    44    21    42    1
