@<TRIPOS>MOLECULE
ChEBML5313
 49 52 0 0 0
SMALL
USER_CHARGES

@<TRIPOS>ATOM
      1 C          -8.5606   -1.6701   -2.4863 C.ar    1  LIG1       -0.0622
      2 C          -1.9979    0.9353   -3.4131 C.ar    1  LIG1       -0.0622
      3 C         -12.6283   -4.6627    1.1277 C.ar    1  LIG1       -0.0615
      4 C          -7.5056   -2.5498   -2.7287 C.ar    1  LIG1       -0.0619
      5 C          -8.3717   -0.5671   -1.6535 C.ar    1  LIG1       -0.0619
      6 C          -2.2031   -0.4427   -3.4810 C.ar    1  LIG1       -0.0619
      7 C          -2.6705    1.6943   -2.4553 C.ar    1  LIG1       -0.0619
      8 C         -11.7082   -5.5447    0.5646 C.ar    1  LIG1       -0.0603
      9 C         -12.2097   -3.4465    1.6794 C.ar    1  LIG1       -0.0530
     10 C          -6.2618   -2.3267   -2.1380 C.ar    1  LIG1       -0.0584
     11 C          -7.1280   -0.3440   -1.0628 C.ar    1  LIG1       -0.0584
     12 C          -3.0810   -1.0617   -2.5912 C.ar    1  LIG1       -0.0584
     13 C          -3.5484    1.0753   -1.5655 C.ar    1  LIG1       -0.0584
     14 C         -10.3440   -5.2411    0.5346 C.ar    1  LIG1       -0.0402
     15 C         -10.0802   -2.0048    2.1163 C.ar    1  LIG1       -0.0262
     16 C         -10.8394   -3.1188    1.6608 C.ar    1  LIG1       -0.0022
     17 C          -6.0730   -1.2238   -1.3050 C.ar    1  LIG1       -0.0404
     18 C          -3.7537   -0.3028   -1.6334 C.ar    1  LIG1       -0.0404
     19 C          -9.9401   -4.0218    1.0899 C.ar    1  LIG1        0.0378
     20 C          -8.7592   -2.2486    1.8190 C.ar    1  LIG1        0.0944
     21 C          -7.6239   -1.4220    2.0822 C.2     1  LIG1        0.2572
     22 C          -4.8014   -0.2591    0.7137 C.3     1  LIG1       -0.0265
     23 C          -5.1140   -1.1850    1.8931 C.3     1  LIG1        0.0123
     24 C          -4.7150   -0.9796   -0.6594 C.3     1  LIG1        0.0104
     25 N          -8.6847   -3.4675    1.1999 N.ar    1  LIG1       -0.3101
     26 N          -6.3558   -1.8926    1.6785 N.am    1  LIG1       -0.3102
     27 O          -7.7377   -0.3183    2.6728 O.2     1  LIG1       -0.2704
     28 H          -9.5285   -1.8432   -2.9475 H       1  LIG1        0.0622
     29 H          -1.3132    1.4170   -4.1050 H       1  LIG1        0.0622
     30 H         -13.6841   -4.9206    1.1385 H       1  LIG1        0.0623
     31 H          -7.6521   -3.4079   -3.3780 H       1  LIG1        0.0623
     32 H          -9.1926    0.1186   -1.4656 H       1  LIG1        0.0623
     33 H          -1.6786   -1.0340   -4.2258 H       1  LIG1        0.0623
     34 H          -2.5101    2.7670   -2.4015 H       1  LIG1        0.0623
     35 H         -12.0553   -6.4839    0.1421 H       1  LIG1        0.0623
     36 H         -12.9379   -2.7678    2.1149 H       1  LIG1        0.0629
     37 H          -5.4455   -3.0175   -2.3323 H       1  LIG1        0.0626
     38 H          -6.9902    0.5178   -0.4152 H       1  LIG1        0.0626
     39 H          -3.2349   -2.1360   -2.6515 H       1  LIG1        0.0626
     40 H          -4.0682    1.6746   -0.8228 H       1  LIG1        0.0626
     41 H          -9.6277   -5.9281    0.0966 H       1  LIG1        0.0642
     42 H         -10.4639   -1.1210    2.6086 H       1  LIG1        0.0651
     43 H          -5.5661    0.5264    0.6945 H       1  LIG1        0.0292
     44 H          -3.8463    0.2472    0.9103 H       1  LIG1        0.0292
     45 H          -5.1639   -0.6297    2.8347 H       1  LIG1        0.0467
     46 H          -4.3083   -1.9199    1.9956 H       1  LIG1        0.0467
     47 H          -4.2724   -1.9619   -0.4393 H       1  LIG1        0.0402
     48 H          -7.8330   -3.9011    0.8708 H       1  LIG1        0.1529
     49 H          -6.2950   -2.8159    1.2617 H       1  LIG1        0.1497
@<TRIPOS>BOND
     1     1     4   ar
     2     1     5   ar
     3     2     6   ar
     4     2     7   ar
     5     3     8   ar
     6     3     9   ar
     7     4    10   ar
     8     5    11   ar
     9     6    12   ar
    10     7    13   ar
    11     8    14   ar
    12     9    16   ar
    13    10    17   ar
    14    11    17   ar
    15    12    18   ar
    16    13    18   ar
    17    14    19   ar
    18    15    16   ar
    19    15    20   ar
    20    16    19   ar
    21    17    24    1
    22    18    24    1
    23    19    25   ar
    24    20    21    1
    25    20    25   ar
    26    21    26   am
    27    21    27    2
    28    22    23    1
    29    22    24    1
    30    23    26    1
    31     1    28    1
    32     2    29    1
    33     3    30    1
    34     4    31    1
    35     5    32    1
    36     6    33    1
    37     7    34    1
    38     8    35    1
    39     9    36    1
    40    10    37    1
    41    11    38    1
    42    12    39    1
    43    13    40    1
    44    14    41    1
    45    15    42    1
    46    22    43    1
    47    22    44    1
    48    23    45    1
    49    23    46    1
    50    24    47    1
    51    25    48    1
    52    26    49    1
