@<TRIPOS>MOLECULE
ChEBML924247
 40 42 0 0 0
SMALL
USER_CHARGES

@<TRIPOS>ATOM
      1 C         -12.1934   -5.2063    1.1640 C.ar    1  LIG1       -0.0616
      2 C         -12.7249   -4.4546    2.2078 C.ar    1  LIG1       -0.0616
      3 C         -10.9411   -4.8855    0.6393 C.ar    1  LIG1       -0.0543
      4 C         -12.0061   -3.3794    2.7308 C.ar    1  LIG1       -0.0543
      5 C          -3.6811    1.3494   -2.6144 C.ar    1  LIG1       -0.0494
      6 C          -2.9939   -0.9125   -2.1159 C.ar    1  LIG1       -0.0494
      7 C          -2.4621    1.5792   -3.2521 C.ar    1  LIG1       -0.0585
      8 C          -1.7749   -0.6827   -2.7537 C.ar    1  LIG1       -0.0585
      9 C          -8.9418   -3.4694    0.6375 C.ar    1  LIG1       -0.0391
     10 C         -10.0069   -1.9632    2.7290 C.ar    1  LIG1       -0.0234
     11 C         -10.2037   -3.8065    1.1534 C.ar    1  LIG1       -0.0174
     12 C         -10.7442   -3.0422    2.2148 C.ar    1  LIG1       -0.0157
     13 C          -3.9470    0.1036   -2.0462 C.ar    1  LIG1        0.0386
     14 C          -8.2230   -2.3941    1.1605 C.ar    1  LIG1        0.0692
     15 C          -1.5089    0.5632   -3.3219 C.ar    1  LIG1       -0.0511
     16 C          -8.7546   -1.6424    2.2041 C.ar    1  LIG1        0.0845
     17 C          -5.2457   -0.1426   -1.3669 C.2     1  LIG1        0.2592
     18 C          -6.9175   -2.0751    0.5994 C.2     1  LIG1        0.2619
     19 C          -0.2061    0.8091   -4.0050 C.3     1  LIG1       -0.0398
     20 N          -5.6753   -1.4557   -1.3541 N.am    1  LIG1       -0.2304
     21 N          -6.8782   -1.7510   -0.7567 N.am    1  LIG1       -0.2303
     22 O          -5.8595    0.8036   -0.8799 O.2     1  LIG1       -0.2702
     23 O          -5.8982   -2.1111    1.3105 O.2     1  LIG1       -0.2701
     24 O          -8.0672   -0.5880    2.7275 O.3     1  LIG1       -0.3600
     25 H         -12.7533   -6.0437    0.7577 H       1  LIG1        0.0623
     26 H         -13.7002   -4.7049    2.6154 H       1  LIG1        0.0623
     27 H         -10.5449   -5.4871   -0.1762 H       1  LIG1        0.0629
     28 H         -12.4412   -2.8061    3.5467 H       1  LIG1        0.0629
     29 H          -4.4170    2.1478   -2.5656 H       1  LIG1        0.0631
     30 H          -3.1901   -1.8871   -1.6767 H       1  LIG1        0.0631
     31 H          -2.2634    2.5528   -3.6922 H       1  LIG1        0.0625
     32 H          -1.0382   -1.4803   -2.8039 H       1  LIG1        0.0625
     33 H          -8.5167   -4.0508   -0.1793 H       1  LIG1        0.0638
     34 H         -10.4089   -1.3653    3.5453 H       1  LIG1        0.0657
     35 H           0.5332    1.1917   -3.2907 H       1  LIG1        0.0280
     36 H           0.1881   -0.1116   -4.4543 H       1  LIG1        0.0280
     37 H          -0.3142    1.5384   -4.8182 H       1  LIG1        0.0280
     38 H          -5.1895   -2.2317   -1.7902 H       1  LIG1        0.1743
     39 H          -7.6906   -1.7549   -1.3636 H       1  LIG1        0.1743
     40 H          -7.2189   -0.4816    2.2697 H       1  LIG1        0.2182
@<TRIPOS>BOND
     1     1     2   ar
     2     1     3   ar
     3     2     4   ar
     4     3    11   ar
     5     4    12   ar
     6     5     7   ar
     7     5    13   ar
     8     6     8   ar
     9     6    13   ar
    10     7    15   ar
    11     8    15   ar
    12     9    11   ar
    13     9    14   ar
    14    10    12   ar
    15    10    16   ar
    16    11    12   ar
    17    13    17    1
    18    14    16   ar
    19    14    18    1
    20    15    19    1
    21    16    24    1
    22    17    20   am
    23    17    22    2
    24    18    21   am
    25    18    23    2
    26    20    21    1
    27     1    25    1
    28     2    26    1
    29     3    27    1
    30     4    28    1
    31     5    29    1
    32     6    30    1
    33     7    31    1
    34     8    32    1
    35     9    33    1
    36    10    34    1
    37    19    35    1
    38    19    36    1
    39    19    37    1
    40    20    38    1
    41    21    39    1
    42    24    40    1
