@<TRIPOS>MOLECULE
ChEBML331744
 33 35 0 0 0
SMALL
USER_CHARGES

@<TRIPOS>ATOM
      1 C         -10.6216   -5.1011    0.7534 C.ar    1  LIG1       -0.0330
      2 C         -10.1568   -1.7928    2.0011 C.ar    1  LIG1       -0.0195
      3 C         -11.9652   -5.0720    1.0613 C.ar    1  LIG1       -0.0222
      4 C         -10.0174   -3.8710    1.1227 C.ar    1  LIG1        0.0451
      5 C         -10.8836   -2.9747    1.6788 C.ar    1  LIG1        0.0350
      6 C          -8.8583   -2.0434    1.6140 C.ar    1  LIG1        0.0952
      7 C          -7.7314   -1.1641    1.7255 C.2     1  LIG1        0.2602
      8 C          -7.0197   -1.7742   -0.6144 C.3     1  LIG1        0.0539
      9 C          -5.3244   -1.0306    1.0067 C.3     1  LIG1        0.0539
     10 C          -6.5267   -0.7579   -1.6339 C.3     1  LIG1       -0.0183
     11 C          -4.7937   -0.0060    0.0133 C.3     1  LIG1       -0.0183
     12 C          -4.4775    0.4315   -2.4253 C.3     1  LIG1       -0.0453
     13 N          -8.7689   -3.3014    1.0811 N.ar    1  LIG1       -0.3096
     14 N          -6.7362   -1.3155    0.7515 N.am    1  LIG1       -0.2863
     15 N          -5.0547   -0.4971   -1.3942 N.4     1  LIG1        0.2462
     16 O          -7.6726   -0.3368    2.6336 O.2     1  LIG1       -0.2701
     17 S         -12.4964   -3.5997    1.7786 S.2     1  LIG1       -0.0959
     18 H         -10.1172   -5.9427    0.2983 H       1  LIG1        0.0648
     19 H         -10.5357   -0.8869    2.4537 H       1  LIG1        0.0657
     20 H         -12.6848   -5.8622    0.8980 H       1  LIG1        0.0701
     21 H          -8.0868   -1.9525   -0.7677 H       1  LIG1        0.0525
     22 H          -6.5086   -2.7355   -0.7472 H       1  LIG1        0.0525
     23 H          -4.7771   -1.9766    0.9186 H       1  LIG1        0.0525
     24 H          -5.1800   -0.6628    2.0272 H       1  LIG1        0.0525
     25 H          -6.6320   -1.1429   -2.6532 H       1  LIG1        0.0831
     26 H          -7.0494    0.2007   -1.5408 H       1  LIG1        0.0831
     27 H          -5.2958    0.9620    0.1201 H       1  LIG1        0.0831
     28 H          -3.7122    0.1217    0.1238 H       1  LIG1        0.0831
     29 H          -4.9854    1.3930   -2.3304 H       1  LIG1        0.0777
     30 H          -3.4090    0.5305   -2.2251 H       1  LIG1        0.0777
     31 H          -4.6534   -0.0098   -3.4082 H       1  LIG1        0.0777
     32 H          -7.9471   -3.7635    0.7118 H       1  LIG1        0.1530
     33 H          -4.5630   -1.3950   -1.5011 H       1  LIG1        0.2001
@<TRIPOS>BOND
     1     1     3   ar
     2     1     4   ar
     3     2     5   ar
     4     2     6   ar
     5     3    17   ar
     6     4     5   ar
     7     4    13   ar
     8     5    17   ar
     9     6     7    1
    10     6    13   ar
    11     7    14   am
    12     7    16    2
    13     8    10    1
    14     8    14    1
    15     9    11    1
    16     9    14    1
    17    10    15    1
    18    11    15    1
    19    12    15    1
    20     1    18    1
    21     2    19    1
    22     3    20    1
    23     8    21    1
    24     8    22    1
    25     9    23    1
    26     9    24    1
    27    10    25    1
    28    10    26    1
    29    11    27    1
    30    11    28    1
    31    12    29    1
    32    12    30    1
    33    12    31    1
    34    13    32    1
    35    15    33    1
