@<TRIPOS>MOLECULE
ChEBML715553
 56 60 0 0 0
SMALL
USER_CHARGES

@<TRIPOS>ATOM
      1 C          -2.2083    0.6562   -3.5030 C.ar    1  LIG1       -0.0431
      2 C          -1.9330   -0.5984   -2.9705 C.ar    1  LIG1       -0.0449
      3 C         -12.2841   -3.7613    1.7296 C.ar    1  LIG1       -0.0482
      4 C         -11.4954   -5.7902    0.6813 C.ar    1  LIG1       -0.0482
      5 C         -10.9998   -3.2225    1.6529 C.ar    1  LIG1       -0.0402
      6 C         -10.2112   -5.2514    0.6046 C.ar    1  LIG1       -0.0402
      7 C          -3.2543    1.3791   -2.9524 C.ar    1  LIG1        0.0291
      8 C          -7.0122   -1.6686    1.2435 C.ar    1  LIG1        0.0158
      9 C         -12.5319   -5.0453    1.2439 C.ar    1  LIG1        0.0556
     10 C          -2.7013   -1.0849   -1.9187 C.ar    1  LIG1        0.0957
     11 C          -9.9634   -3.9675    1.0905 C.ar    1  LIG1        0.0314
     12 C          -6.3957   -0.7740    2.1196 C.ar    1  LIG1        0.0509
     13 C          -3.7250   -0.2840   -1.4389 C.ar    1  LIG1        0.1322
     14 C          -7.9739   -2.4927    1.8191 C.ar    1  LIG1        0.1289
     15 C          -7.6488   -1.5848    3.8667 C.ar    1  LIG1        0.1335
     16 C          -6.7249   -1.7685   -0.2312 C.3     1  LIG1       -0.0067
     17 C          -5.3546    0.2264    1.6771 C.3     1  LIG1        0.0059
     18 C          -9.4179   -1.3321    5.7345 C.3     1  LIG1       -0.0426
     19 C          -8.4162   -0.2323    5.9319 C.3     1  LIG1       -0.0426
     20 C          -5.2451   -2.0053   -0.5492 C.3     1  LIG1        0.0171
     21 C          -4.1479   -0.4113    0.9842 C.3     1  LIG1        0.0184
     22 C          -7.9905   -1.5338    5.3180 C.3     1  LIG1        0.0191
     23 C         -13.9046   -5.6223    1.3257 C.3     1  LIG1        0.4160
     24 C          -2.4026   -2.4306   -1.3506 C.3     1  LIG1        0.4193
     25 N          -4.0225    0.9398   -1.9304 N.ar    1  LIG1       -0.2408
     26 N          -6.7070   -0.7247    3.4400 N.ar    1  LIG1       -0.2371
     27 N          -8.3143   -2.4802    3.1234 N.ar    1  LIG1       -0.2173
     28 N          -4.4833   -0.7587   -0.4029 N.pl3   1  LIG1       -0.3146
     29 N          -8.6706   -3.4246    1.0113 N.pl3   1  LIG1       -0.2993
     30 F         -14.8179   -4.7837    1.8989 F       1  LIG1       -0.1661
     31 F         -14.4345   -5.9477    0.1095 F       1  LIG1       -0.1661
     32 F         -13.9486   -6.7702    2.0631 F       1  LIG1       -0.1661
     33 F          -1.3557   -3.0625   -1.9597 F       1  LIG1       -0.1660
     34 F          -2.0789   -2.4047   -0.0236 F       1  LIG1       -0.1660
     35 F          -3.4580   -3.2903   -1.4528 F       1  LIG1       -0.1660
     36 H          -1.6223    1.0557   -4.3226 H       1  LIG1        0.0639
     37 H          -1.1186   -1.1885   -3.3818 H       1  LIG1        0.0631
     38 H         -13.0854   -3.1744    2.1703 H       1  LIG1        0.0629
     39 H         -11.6787   -6.7918    0.3019 H       1  LIG1        0.0629
     40 H         -10.8173   -2.2217    2.0357 H       1  LIG1        0.0642
     41 H          -9.4109   -5.8411    0.1650 H       1  LIG1        0.0642
     42 H          -3.5107    2.3628   -3.3320 H       1  LIG1        0.0840
     43 H          -7.2759   -2.5931   -0.6953 H       1  LIG1        0.0334
     44 H          -7.0970   -0.8573   -0.7164 H       1  LIG1        0.0334
     45 H          -5.8365    0.9809    1.0436 H       1  LIG1        0.0348
     46 H          -4.9883    0.7578    2.5650 H       1  LIG1        0.0348
     47 H          -9.7670   -1.8593    6.6143 H       1  LIG1        0.0274
     48 H         -10.1734   -1.1916    4.9709 H       1  LIG1        0.0274
     49 H          -8.5012    0.6440    5.3005 H       1  LIG1        0.0274
     50 H          -8.0924   -0.0210    6.9441 H       1  LIG1        0.0274
     51 H          -4.8245   -2.7952    0.0858 H       1  LIG1        0.0472
     52 H          -5.1487   -2.3553   -1.5848 H       1  LIG1        0.0472
     53 H          -3.3158    0.3043    0.9758 H       1  LIG1        0.0473
     54 H          -3.7943   -1.2940    1.5316 H       1  LIG1        0.0473
     55 H          -7.4016   -2.1864    5.9568 H       1  LIG1        0.0385
     56 H          -8.1256   -3.7603    0.2256 H       1  LIG1        0.1543
@<TRIPOS>BOND
     1     1     2   ar
     2     1     7   ar
     3     2    10   ar
     4     3     5   ar
     5     3     9   ar
     6     4     6   ar
     7     4     9   ar
     8     5    11   ar
     9     6    11   ar
    10     7    25   ar
    11     8    12   ar
    12     8    14   ar
    13     8    16    1
    14     9    23    1
    15    10    13   ar
    16    10    24    1
    17    11    29    1
    18    12    17    1
    19    12    26   ar
    20    13    25   ar
    21    13    28    1
    22    14    27   ar
    23    14    29    1
    24    15    22    1
    25    15    26   ar
    26    15    27   ar
    27    16    20    1
    28    17    21    1
    29    18    19    1
    30    18    22    1
    31    19    22    1
    32    20    28    1
    33    21    28    1
    34    23    30    1
    35    23    31    1
    36    23    32    1
    37    24    33    1
    38    24    34    1
    39    24    35    1
    40     1    36    1
    41     2    37    1
    42     3    38    1
    43     4    39    1
    44     5    40    1
    45     6    41    1
    46     7    42    1
    47    16    43    1
    48    16    44    1
    49    17    45    1
    50    17    46    1
    51    18    47    1
    52    18    48    1
    53    19    49    1
    54    19    50    1
    55    20    51    1
    56    20    52    1
    57    21    53    1
    58    21    54    1
    59    22    55    1
    60    29    56    1
