@<TRIPOS>MOLECULE
ChEBML913595
 49 51 0 0 0
SMALL
USER_CHARGES

@<TRIPOS>ATOM
      1 C          -3.0392   -1.7720    0.1529 C.ar    1  LIG1       -0.0494
      2 C         -10.4160   -5.0157    0.0420 C.ar    1  LIG1       -0.0389
      3 C         -11.1314   -3.3100    1.5963 C.ar    1  LIG1       -0.0389
      4 C          -4.2222   -1.8884    0.8918 C.ar    1  LIG1       -0.0310
      5 C         -11.7427   -5.4046   -0.1418 C.ar    1  LIG1       -0.0377
      6 C         -12.4583   -3.6990    1.4125 C.ar    1  LIG1       -0.0377
      7 C          -5.1785   -0.0428   -0.3258 C.ar    1  LIG1       -0.0001
      8 C          -2.9069   -0.7892   -0.8371 C.ar    1  LIG1        0.0090
      9 C         -10.1103   -3.9683    0.9112 C.ar    1  LIG1        0.0327
     10 C          -3.9923    0.0609   -1.0545 C.ar    1  LIG1        0.0958
     11 C          -5.2901   -1.0251    0.6526 C.ar    1  LIG1        0.0783
     12 C         -12.7639   -4.7464    0.5433 C.ar    1  LIG1        0.0541
     13 C          -1.6745    0.3651   -2.5723 C.ar    1  LIG1        0.0149
     14 C          -1.6970   -0.6078   -1.6506 C.ar    1  LIG1       -0.0321
     15 C          -2.8110    1.2699   -2.8134 C.ar    1  LIG1        0.2908
     16 C          -8.2862   -2.5599    1.9181 C.2     1  LIG1        0.2425
     17 C           0.3784   -3.8524   -1.7937 C.3     1  LIG1       -0.0651
     18 C          -0.5128   -1.5057   -1.4409 C.3     1  LIG1       -0.0272
     19 C          -6.7789   -2.4473    1.8427 C.3     1  LIG1        0.1302
     20 C          -0.7715   -2.8837   -2.0318 C.3     1  LIG1       -0.0521
     21 N         -14.8796   -4.2328   -0.9945 N.3     1  LIG1       -0.3036
     22 N          -8.7642   -3.5737    1.0976 N.am    1  LIG1       -0.2834
     23 O          -2.7540    2.1493   -3.6659 O.2     1  LIG1       -0.2609
     24 O          -8.9320   -1.8035    2.6373 O.2     1  LIG1       -0.2746
     25 O         -14.4396   -6.6208   -0.1291 O.2     1  LIG1       -0.4766
     26 O         -15.1889   -4.8415    1.4895 O.2     1  LIG1       -0.4766
     27 O          -3.9388    1.0753   -2.0313 O.2     1  LIG1       -0.2740
     28 O          -6.4375   -1.1433    1.3742 O.3     1  LIG1       -0.3364
     29 S         -14.4247   -5.2336    0.3135 S.O2    1  LIG1       -0.1706
     30 H          -2.2318   -2.4658    0.3720 H       1  LIG1        0.0631
     31 H          -9.6282   -5.5359   -0.4971 H       1  LIG1        0.0643
     32 H         -10.9050   -2.4924    2.2761 H       1  LIG1        0.0643
     33 H          -4.3018   -2.6585    1.6547 H       1  LIG1        0.0650
     34 H         -11.9698   -6.2220   -0.8211 H       1  LIG1        0.0643
     35 H         -13.2461   -3.1793    1.9512 H       1  LIG1        0.0643
     36 H          -6.0048    0.6352   -0.5203 H       1  LIG1        0.0678
     37 H          -0.7970    0.5276   -3.1912 H       1  LIG1        0.0690
     38 H           0.5944   -3.9498   -0.7249 H       1  LIG1        0.0230
     39 H           1.2903   -3.5219   -2.3008 H       1  LIG1        0.0230
     40 H           0.1211   -4.8444   -2.1788 H       1  LIG1        0.0230
     41 H          -0.3589   -1.5864   -0.3623 H       1  LIG1        0.0316
     42 H           0.3639   -1.0336   -1.8888 H       1  LIG1        0.0316
     43 H          -6.3394   -2.6105    2.8313 H       1  LIG1        0.0674
     44 H          -6.3705   -3.1945    1.1557 H       1  LIG1        0.0674
     45 H          -0.9616   -2.8092   -3.1090 H       1  LIG1        0.0267
     46 H          -1.6763   -3.2966   -1.5709 H       1  LIG1        0.0267
     47 H         -15.0158   -4.6723   -1.9130 H       1  LIG1        0.1601
     48 H         -15.5257   -3.4568   -0.8058 H       1  LIG1        0.1601
     49 H          -8.0657   -4.0926    0.5697 H       1  LIG1        0.1557
@<TRIPOS>BOND
     1     1     4   ar
     2     1     8   ar
     3     2     5   ar
     4     2     9   ar
     5     3     6   ar
     6     3     9   ar
     7     4    11   ar
     8     5    12   ar
     9     6    12   ar
    10     7    10   ar
    11     7    11   ar
    12     8    10   ar
    13     8    14   ar
    14     9    22    1
    15    10    27   ar
    16    11    28    1
    17    12    29    1
    18    13    14   ar
    19    13    15   ar
    20    14    18    1
    21    15    23    2
    22    15    27   ar
    23    16    19    1
    24    16    22   am
    25    16    24    2
    26    17    20    1
    27    18    20    1
    28    19    28    1
    29    21    29    1
    30    25    29    2
    31    26    29    2
    32     1    30    1
    33     2    31    1
    34     3    32    1
    35     4    33    1
    36     5    34    1
    37     6    35    1
    38     7    36    1
    39    13    37    1
    40    17    38    1
    41    17    39    1
    42    17    40    1
    43    18    41    1
    44    18    42    1
    45    19    43    1
    46    19    44    1
    47    20    45    1
    48    20    46    1
    49    21    47    1
    50    21    48    1
    51    22    49    1
