@<TRIPOS>MOLECULE
ChEBML418054
 55 59 0 0 0
SMALL
USER_CHARGES

@<TRIPOS>ATOM
      1 C          -2.7466   -1.8388    2.6213 C.ar    1  LIG1       -0.0600
      2 C          -4.1321   -1.6636    2.6447 C.ar    1  LIG1       -0.0602
      3 C         -11.4769   -5.7353    0.8733 C.ar    1  LIG1       -0.0571
      4 C          -1.9878   -1.4410    1.5134 C.ar    1  LIG1       -0.0344
      5 C          -4.8091   -1.0862    1.5653 C.ar    1  LIG1       -0.0383
      6 C         -10.1534   -5.2925    0.7957 C.ar    1  LIG1       -0.0399
      7 C         -12.2390   -3.5251    1.5299 C.ar    1  LIG1       -0.0498
      8 C         -10.2935   -1.7943    1.6840 C.ar    1  LIG1       -0.0262
      9 C         -10.9124   -3.0557    1.4585 C.ar    1  LIG1       -0.0019
     10 C         -12.5052   -4.8670    1.2345 C.ar    1  LIG1       -0.0475
     11 C          -2.6515   -0.8593    0.4200 C.ar    1  LIG1        0.0864
     12 C          -9.9022   -3.9485    1.0938 C.ar    1  LIG1        0.0378
     13 C          -4.0331   -0.6978    0.4728 C.ar    1  LIG1        0.0603
     14 C          -8.9448   -1.9430    1.4563 C.ar    1  LIG1        0.0947
     15 C          -3.1960    0.0496   -1.4339 C.ar    1  LIG1        0.1014
     16 C          -7.9150   -0.9576    1.5554 C.2     1  LIG1        0.2598
     17 C          -6.4093   -0.9146   -1.8305 C.3     1  LIG1       -0.0166
     18 C          -6.9748   -1.7125   -0.6614 C.3     1  LIG1        0.0164
     19 C          -6.5997    0.5611    0.0328 C.3     1  LIG1        0.0336
     20 C          -5.6817    0.2602   -1.1584 C.3     1  LIG1        0.0463
     21 C         -14.6449   -5.2308   -0.0209 C.3     1  LIG1       -0.0613
     22 C          -1.8448    0.4451   -3.5086 C.3     1  LIG1       -0.0585
     23 C         -13.9080   -5.3719    1.3080 C.3     1  LIG1       -0.0307
     24 C          -3.1779    0.6518   -2.7828 C.3     1  LIG1        0.0008
     25 N          -2.1492   -0.3892   -0.7717 N.ar    1  LIG1       -0.2357
     26 N          -8.7185   -3.2456    1.1007 N.ar    1  LIG1       -0.3101
     27 N          -4.3540   -0.1142   -0.7260 N.ar    1  LIG1       -0.2824
     28 N          -7.2071   -0.7172    0.3822 N.am    1  LIG1       -0.2948
     29 O          -7.6793   -0.3718    2.6133 O.2     1  LIG1       -0.2702
     30 H          -2.2487   -2.2894    3.4760 H       1  LIG1        0.0623
     31 H          -4.6961   -1.9822    3.5181 H       1  LIG1        0.0623
     32 H         -11.6966   -6.7762    0.6461 H       1  LIG1        0.0626
     33 H          -0.9116   -1.5809    1.5056 H       1  LIG1        0.0646
     34 H          -5.8846   -0.9498    1.5847 H       1  LIG1        0.0643
     35 H          -9.3536   -5.9691    0.5144 H       1  LIG1        0.0643
     36 H         -13.0439   -2.8512    1.8112 H       1  LIG1        0.0632
     37 H         -10.7866   -0.8783    1.9812 H       1  LIG1        0.0651
     38 H          -5.7670   -1.5242   -2.4735 H       1  LIG1        0.0302
     39 H          -7.2345   -0.5260   -2.4402 H       1  LIG1        0.0302
     40 H          -7.9009   -2.2349   -0.9191 H       1  LIG1        0.0470
     41 H          -6.2488   -2.4386   -0.2796 H       1  LIG1        0.0470
     42 H          -6.0841    0.9892    0.8986 H       1  LIG1        0.0489
     43 H          -7.4137    1.2337   -0.2598 H       1  LIG1        0.0489
     44 H          -5.5551    1.1212   -1.8198 H       1  LIG1        0.0527
     45 H         -14.6531   -4.1885   -0.3573 H       1  LIG1        0.0234
     46 H         -15.6829   -5.5644    0.0752 H       1  LIG1        0.0234
     47 H         -14.1663   -5.8320   -0.8015 H       1  LIG1        0.0234
     48 H          -1.0139    0.8420   -2.9154 H       1  LIG1        0.0235
     49 H          -1.8398    0.9503   -4.4795 H       1  LIG1        0.0235
     50 H          -1.6567   -0.6203   -3.6795 H       1  LIG1        0.0235
     51 H         -13.9187   -6.4293    1.6159 H       1  LIG1        0.0313
     52 H         -14.4678   -4.8344    2.0897 H       1  LIG1        0.0313
     53 H          -3.9875    0.2382   -3.4143 H       1  LIG1        0.0343
     54 H          -3.3862    1.7380   -2.7367 H       1  LIG1        0.0343
     55 H          -7.8146   -3.6380    0.8752 H       1  LIG1        0.1529
@<TRIPOS>BOND
     1     1     2   ar
     2     1     4   ar
     3     2     5   ar
     4     3     6   ar
     5     3    10   ar
     6     4    11   ar
     7     5    13   ar
     8     6    12   ar
     9     7     9   ar
    10     7    10   ar
    11     8     9   ar
    12     8    14   ar
    13     9    12   ar
    14    10    23    1
    15    11    13   ar
    16    11    25   ar
    17    12    26   ar
    18    13    27   ar
    19    14    16    1
    20    14    26   ar
    21    15    24    1
    22    15    25   ar
    23    15    27   ar
    24    16    28   am
    25    16    29    2
    26    17    18    1
    27    17    20    1
    28    18    28    1
    29    19    20    1
    30    19    28    1
    31    20    27    1
    32    21    23    1
    33    22    24    1
    34     1    30    1
    35     2    31    1
    36     3    32    1
    37     4    33    1
    38     5    34    1
    39     6    35    1
    40     7    36    1
    41     8    37    1
    42    17    38    1
    43    17    39    1
    44    18    40    1
    45    18    41    1
    46    19    42    1
    47    19    43    1
    48    20    44    1
    49    21    45    1
    50    21    46    1
    51    21    47    1
    52    22    48    1
    53    22    49    1
    54    22    50    1
    55    23    51    1
    56    23    52    1
    57    24    53    1
    58    24    54    1
    59    26    55    1
