@<TRIPOS>MOLECULE
ChEBML234098
 45 48 0 0 0
SMALL
USER_CHARGES

@<TRIPOS>ATOM
      1 C         -12.4346   -6.2810   -0.7636 C.1     1  LIG1        0.0992
      2 C          -3.4555    0.8384   -3.7031 C.ar    1  LIG1       -0.0603
      3 C          -2.0659    0.8485   -3.5823 C.ar    1  LIG1       -0.0606
      4 C         -12.7623   -4.3956    0.7504 C.ar    1  LIG1       -0.0437
      5 C         -12.2657   -3.3459    1.5316 C.ar    1  LIG1       -0.0517
      6 C          -4.2429    0.3579   -2.6569 C.ar    1  LIG1       -0.0394
      7 C          -1.4638    0.3782   -2.4153 C.ar    1  LIG1       -0.0416
      8 C         -10.5166   -5.0142    0.0586 C.ar    1  LIG1       -0.0224
      9 C         -10.0447   -2.1799    2.2471 C.ar    1  LIG1       -0.0305
     10 C         -11.8993   -5.2158    0.0261 C.ar    1  LIG1        0.0539
     11 C         -10.8751   -3.1234    1.5799 C.ar    1  LIG1       -0.0024
     12 C         -10.0344   -3.9611    0.8439 C.ar    1  LIG1        0.0389
     13 C          -3.6409   -0.1125   -1.4898 C.ar    1  LIG1        0.0479
     14 C          -2.2513   -0.1024   -1.3691 C.ar    1  LIG1        0.0618
     15 C          -8.7402   -2.4579    1.9097 C.ar    1  LIG1        0.0524
     16 C          -5.3010   -1.7216   -0.8349 C.3     1  LIG1        0.0509
     17 C          -5.0820    0.4598    0.3436 C.3     1  LIG1        0.0509
     18 C          -5.9531   -2.3229    0.4028 C.3     1  LIG1       -0.0177
     19 C          -5.7397   -0.1453    1.5774 C.3     1  LIG1       -0.0177
     20 C          -7.4592   -1.7924    2.3185 C.3     1  LIG1        0.0052
     21 N         -12.8690   -7.1455   -1.4044 N.1     1  LIG1       -0.1924
     22 N          -8.7442   -3.5337    1.0628 N.ar    1  LIG1       -0.3134
     23 N          -4.4481   -0.5829   -0.4695 N.pl3   1  LIG1       -0.3191
     24 N          -6.6849   -1.2403    1.1547 N.4     1  LIG1        0.2525
     25 CL         -1.4648   -0.6755    0.0581 Cl      1  LIG1       -0.0823
     26 H          -3.9241    1.2047   -4.6119 H       1  LIG1        0.0623
     27 H          -1.4529    1.2228   -4.3971 H       1  LIG1        0.0623
     28 H         -13.8377   -4.5597    0.7206 H       1  LIG1        0.0637
     29 H         -12.9492   -2.7141    2.0915 H       1  LIG1        0.0630
     30 H          -5.3249    0.3551   -2.7630 H       1  LIG1        0.0643
     31 H          -0.3796    0.3930   -2.3375 H       1  LIG1        0.0639
     32 H          -9.8337   -5.6462   -0.5014 H       1  LIG1        0.0656
     33 H         -10.3694   -1.3841    2.9038 H       1  LIG1        0.0648
     34 H          -4.7044   -2.4984   -1.3292 H       1  LIG1        0.0524
     35 H          -6.0720   -1.3951   -1.5450 H       1  LIG1        0.0524
     36 H          -5.8309    0.9946   -0.2553 H       1  LIG1        0.0524
     37 H          -4.3347    1.1938    0.6697 H       1  LIG1        0.0524
     38 H          -6.6854   -3.0870    0.1225 H       1  LIG1        0.0831
     39 H          -5.2118   -2.7561    1.0841 H       1  LIG1        0.0831
     40 H          -5.0014   -0.5894    2.2551 H       1  LIG1        0.0831
     41 H          -6.3235    0.6096    2.1143 H       1  LIG1        0.0831
     42 H          -7.6478   -0.9536    2.9971 H       1  LIG1        0.0882
     43 H          -6.7951   -2.4951    2.8332 H       1  LIG1        0.0882
     44 H          -7.9210   -3.9555    0.6549 H       1  LIG1        0.1527
     45 H          -7.3746   -0.8260    0.5126 H       1  LIG1        0.2009
@<TRIPOS>BOND
     1     1    10    1
     2     1    21    3
     3     2     3   ar
     4     2     6   ar
     5     3     7   ar
     6     4     5   ar
     7     4    10   ar
     8     5    11   ar
     9     6    13   ar
    10     7    14   ar
    11     8    10   ar
    12     8    12   ar
    13     9    11   ar
    14     9    15   ar
    15    11    12   ar
    16    12    22   ar
    17    13    14   ar
    18    13    23    1
    19    14    25    1
    20    15    20    1
    21    15    22   ar
    22    16    18    1
    23    16    23    1
    24    17    19    1
    25    17    23    1
    26    18    24    1
    27    19    24    1
    28    20    24    1
    29     2    26    1
    30     3    27    1
    31     4    28    1
    32     5    29    1
    33     6    30    1
    34     7    31    1
    35     8    32    1
    36     9    33    1
    37    16    34    1
    38    16    35    1
    39    17    36    1
    40    17    37    1
    41    18    38    1
    42    18    39    1
    43    19    40    1
    44    19    41    1
    45    20    42    1
    46    20    43    1
    47    22    44    1
    48    24    45    1
