@<TRIPOS>MOLECULE
ChEBML426608
 40 42 0 0 0
SMALL
USER_CHARGES

@<TRIPOS>ATOM
      1 C         -11.0294   -3.3252    1.3609 C.ar    1  LIG1       -0.0622
      2 C          -9.7649   -3.8793    1.2695 C.ar    1  LIG1       -0.0615
      3 C         -11.1862   -2.0012    1.7308 C.ar    1  LIG1       -0.0615
      4 C          -2.6042    0.7004   -3.5930 C.ar    1  LIG1       -0.0431
      5 C          -8.6513   -3.1137    1.5470 C.ar    1  LIG1       -0.0497
      6 C         -10.0812   -1.2264    2.0172 C.ar    1  LIG1       -0.0497
      7 C          -1.9100   -0.2949   -2.9184 C.ar    1  LIG1       -0.0449
      8 C          -3.8466    1.0889   -3.1330 C.ar    1  LIG1        0.0291
      9 C          -8.8025   -1.7776    1.9213 C.ar    1  LIG1        0.0372
     10 C          -2.4932   -0.8654   -1.8012 C.ar    1  LIG1        0.0957
     11 C          -3.7506   -0.4291   -1.3972 C.ar    1  LIG1        0.1323
     12 C          -7.6135   -0.9514    2.2207 C.2     1  LIG1        0.2456
     13 C          -4.5803    0.0921    0.6759 C.3     1  LIG1        0.0288
     14 C          -5.6650   -1.4878   -0.7104 C.3     1  LIG1        0.0288
     15 C          -5.2213   -0.4686    1.9494 C.3     1  LIG1        0.0303
     16 C          -6.3776   -2.1527    0.4717 C.3     1  LIG1        0.0303
     17 C          -1.7785   -1.9492   -1.0358 C.3     1  LIG1        0.4193
     18 N          -4.3784    0.5274   -2.0641 N.ar    1  LIG1       -0.2408
     19 N          -4.3508   -0.9976   -0.2797 N.pl3   1  LIG1       -0.3122
     20 N          -6.4533   -1.1811    1.5745 N.am    1  LIG1       -0.2947
     21 O          -7.6824   -0.0651    3.0495 O.2     1  LIG1       -0.2716
     22 F          -0.5616   -2.2379   -1.6628 F       1  LIG1       -0.1660
     23 F          -2.5726   -3.1005   -1.0062 F       1  LIG1       -0.1660
     24 F          -1.5376   -1.5150    0.2722 F       1  LIG1       -0.1660
     25 H         -11.8980   -3.9288    1.1423 H       1  LIG1        0.0622
     26 H          -9.6494   -4.9133    0.9798 H       1  LIG1        0.0623
     27 H         -12.1759   -1.5747    1.8000 H       1  LIG1        0.0623
     28 H          -2.1765    1.1661   -4.4686 H       1  LIG1        0.0639
     29 H          -7.6648   -3.5473    1.4746 H       1  LIG1        0.0631
     30 H         -10.2051   -0.1945    2.3105 H       1  LIG1        0.0631
     31 H          -0.9364   -0.6163   -3.2580 H       1  LIG1        0.0631
     32 H          -4.3901    1.8627   -3.6548 H       1  LIG1        0.0840
     33 H          -3.6293    0.5627    0.9250 H       1  LIG1        0.0485
     34 H          -5.2453    0.8318    0.2301 H       1  LIG1        0.0485
     35 H          -6.2638   -0.6516   -1.0716 H       1  LIG1        0.0485
     36 H          -5.5364   -2.2148   -1.5123 H       1  LIG1        0.0485
     37 H          -4.5312   -1.1589    2.4345 H       1  LIG1        0.0486
     38 H          -5.4623    0.3485    2.6295 H       1  LIG1        0.0486
     39 H          -5.8157   -3.0296    0.7929 H       1  LIG1        0.0486
     40 H          -7.3834   -2.4494    0.1743 H       1  LIG1        0.0486
@<TRIPOS>BOND
     1     1     2   ar
     2     1     3   ar
     3     2     5   ar
     4     3     6   ar
     5     4     7   ar
     6     4     8   ar
     7     5     9   ar
     8     6     9   ar
     9     7    10   ar
    10     8    18   ar
    11     9    12    1
    12    10    11   ar
    13    10    17    1
    14    11    18   ar
    15    11    19    1
    16    12    20   am
    17    12    21    2
    18    13    15    1
    19    13    19    1
    20    14    16    1
    21    14    19    1
    22    15    20    1
    23    16    20    1
    24    17    22    1
    25    17    23    1
    26    17    24    1
    27     1    25    1
    28     2    26    1
    29     3    27    1
    30     4    28    1
    31     5    29    1
    32     6    30    1
    33     7    31    1
    34     8    32    1
    35    13    33    1
    36    13    34    1
    37    14    35    1
    38    14    36    1
    39    15    37    1
    40    15    38    1
    41    16    39    1
    42    16    40    1
