@<TRIPOS>MOLECULE
ChEBML1249781
 37 40 0 0 0
SMALL
USER_CHARGES

@<TRIPOS>ATOM
      1 C          -1.4102   -0.5381   -3.0736 C.1     1  LIG1        0.0991
      2 C          -3.7506   -0.8158   -2.4200 C.ar    1  LIG1       -0.0438
      3 C          -2.0857   -0.3576   -0.7304 C.ar    1  LIG1       -0.0438
      4 C          -4.7396   -0.8477   -1.4369 C.ar    1  LIG1       -0.0530
      5 C          -3.0746   -0.3895    0.2528 C.ar    1  LIG1       -0.0530
      6 C         -10.4238   -5.2446    0.4513 C.ar    1  LIG1       -0.0376
      7 C         -11.7652   -5.5775    0.6608 C.ar    1  LIG1       -0.0302
      8 C         -12.1286   -3.5478    1.9435 C.ar    1  LIG1       -0.0229
      9 C          -9.9779   -2.0857    2.1446 C.ar    1  LIG1       -0.0309
     10 C          -6.5560   -1.4636    0.7725 C.ar    1  LIG1       -0.0421
     11 C          -5.3131    0.0963    2.0682 C.ar    1  LIG1        0.0347
     12 C          -7.3194   -0.6726    2.8814 C.ar    1  LIG1        0.0359
     13 C          -2.4236   -0.5708   -2.0668 C.ar    1  LIG1        0.0520
     14 C         -10.7799   -3.1913    1.7455 C.ar    1  LIG1        0.0002
     15 C          -4.4016   -0.6345   -0.1005 C.ar    1  LIG1       -0.0167
     16 C          -5.4255   -0.6672    0.9174 C.ar    1  LIG1        0.0007
     17 C          -7.5259   -1.4720    1.7686 C.ar    1  LIG1        0.0147
     18 C          -9.9603   -4.0462    1.0055 C.ar    1  LIG1        0.0379
     19 C         -12.6062   -4.7437    1.3951 C.ar    1  LIG1        0.0720
     20 C          -8.7105   -2.2871    1.6486 C.ar    1  LIG1        0.0398
     21 N          -0.5871   -0.5113   -3.8913 N.1     1  LIG1       -0.1924
     22 N          -6.2343    0.1141    3.0575 N.ar    1  LIG1       -0.2633
     23 N          -8.7097   -3.4721    0.9628 N.ar    1  LIG1       -0.3139
     24 O         -13.9100   -5.0943    1.5817 O.3     1  LIG1       -0.3609
     25 H          -4.0293   -0.9837   -3.4577 H       1  LIG1        0.0637
     26 H          -1.0556   -0.1654   -0.4393 H       1  LIG1        0.0637
     27 H          -5.7696   -1.0397   -1.7281 H       1  LIG1        0.0629
     28 H          -2.7954   -0.2214    1.2902 H       1  LIG1        0.0629
     29 H          -9.7699   -5.8945   -0.1203 H       1  LIG1        0.0643
     30 H         -12.1517   -6.5037    0.2416 H       1  LIG1        0.0651
     31 H         -12.7904   -2.9015    2.5133 H       1  LIG1        0.0657
     32 H         -10.2991   -1.2355    2.7321 H       1  LIG1        0.0650
     33 H          -6.6815   -2.0772   -0.1178 H       1  LIG1        0.0637
     34 H          -4.4553    0.7400    2.2407 H       1  LIG1        0.0846
     35 H          -8.0381   -0.6341    3.6952 H       1  LIG1        0.0847
     36 H          -7.9100   -3.8728    0.4916 H       1  LIG1        0.1528
     37 H         -14.3658   -4.4195    2.1086 H       1  LIG1        0.2182
@<TRIPOS>BOND
     1     1    13    1
     2     1    21    3
     3     2     4   ar
     4     2    13   ar
     5     3     5   ar
     6     3    13   ar
     7     4    15   ar
     8     5    15   ar
     9     6     7   ar
    10     6    18   ar
    11     7    19   ar
    12     8    14   ar
    13     8    19   ar
    14     9    14   ar
    15     9    20   ar
    16    10    16   ar
    17    10    17   ar
    18    11    16   ar
    19    11    22   ar
    20    12    17   ar
    21    12    22   ar
    22    14    18   ar
    23    15    16    1
    24    17    20    1
    25    18    23   ar
    26    19    24    1
    27    20    23   ar
    28     2    25    1
    29     3    26    1
    30     4    27    1
    31     5    28    1
    32     6    29    1
    33     7    30    1
    34     8    31    1
    35     9    32    1
    36    10    33    1
    37    11    34    1
    38    12    35    1
    39    23    36    1
    40    24    37    1
