@<TRIPOS>MOLECULE
ChEBML198822
 50 52 0 0 0
SMALL
USER_CHARGES

@<TRIPOS>ATOM
      1 C          -2.2302    0.9455   -3.4743 C.ar    1  LIG1       -0.0429
      2 C          -1.9730   -0.3976   -3.2232 C.ar    1  LIG1       -0.0467
      3 C         -11.9809   -2.9657    0.9339 C.ar    1  LIG1       -0.0569
      4 C         -11.6351   -5.3532    0.8026 C.ar    1  LIG1       -0.0569
      5 C         -10.6147   -2.7794    1.1450 C.ar    1  LIG1       -0.0404
      6 C         -10.2689   -5.1670    1.0136 C.ar    1  LIG1       -0.0404
      7 C          -3.3218    1.5250   -2.8480 C.ar    1  LIG1        0.0291
      8 C          -2.8036   -1.1103   -2.3655 C.ar    1  LIG1        0.0546
      9 C         -12.4911   -4.2526    0.7628 C.ar    1  LIG1       -0.0453
     10 C          -9.7587   -3.8801    1.1849 C.ar    1  LIG1        0.0340
     11 C          -3.8696   -0.4387   -1.7887 C.ar    1  LIG1        0.1306
     12 C          -2.5289   -2.5180   -2.1130 C.2     1  LIG1        0.1531
     13 C          -7.8699   -2.4264    1.6423 C.2     1  LIG1        0.3050
     14 C          -4.8305   -0.6861    0.4444 C.3     1  LIG1        0.0288
     15 C          -5.7828   -1.9241   -1.5247 C.3     1  LIG1        0.0288
     16 C          -6.2976   -0.6747    0.8681 C.3     1  LIG1        0.0315
     17 C          -6.4728   -2.7715   -0.4547 C.3     1  LIG1        0.0315
     18 C         -14.6132   -5.2783    1.6562 C.3     1  LIG1       -0.0587
     19 C         -14.2548   -5.0894   -0.8319 C.3     1  LIG1       -0.0587
     20 C         -13.9517   -4.4517    0.5372 C.3     1  LIG1       -0.0219
     21 N          -4.1511    0.8651   -2.0086 N.ar    1  LIG1       -0.2406
     22 N          -4.6944   -1.1354   -0.9438 N.pl3   1  LIG1       -0.3121
     23 N          -6.9164   -1.9884    0.7039 N.am    1  LIG1       -0.2824
     24 N          -8.3878   -3.6935    1.3963 N.am    1  LIG1       -0.2691
     25 O          -1.5844   -3.1209   -2.6275 O.2     1  LIG1       -0.2977
     26 O          -8.2145   -1.7439    2.6126 O.2     1  LIG1       -0.2537
     27 H          -1.5970    1.5201   -4.1407 H       1  LIG1        0.0639
     28 H          -1.1234   -0.8777   -3.7015 H       1  LIG1        0.0632
     29 H         -12.6408   -2.1026    0.9067 H       1  LIG1        0.0626
     30 H         -12.0241   -6.3595    0.6710 H       1  LIG1        0.0626
     31 H         -10.2280   -1.7720    1.2767 H       1  LIG1        0.0642
     32 H          -9.6109   -6.0318    1.0439 H       1  LIG1        0.0642
     33 H          -3.5653    2.5698   -3.0108 H       1  LIG1        0.0840
     34 H          -3.2137   -3.0548   -1.4223 H       1  LIG1        0.1100
     35 H          -4.4131    0.3199    0.5757 H       1  LIG1        0.0485
     36 H          -4.2581   -1.3652    1.0877 H       1  LIG1        0.0485
     37 H          -5.3950   -2.5832   -2.3106 H       1  LIG1        0.0485
     38 H          -6.5133   -1.2482   -1.9876 H       1  LIG1        0.0485
     39 H          -6.3818   -0.3448    1.9089 H       1  LIG1        0.0486
     40 H          -6.8721    0.0292    0.2535 H       1  LIG1        0.0486
     41 H          -7.3326   -3.2824   -0.9005 H       1  LIG1        0.0486
     42 H          -5.7848   -3.5365   -0.0748 H       1  LIG1        0.0486
     43 H         -14.1672   -6.2756    1.7381 H       1  LIG1        0.0236
     44 H         -15.6862   -5.4079    1.4778 H       1  LIG1        0.0236
     45 H         -14.4922   -4.7782    2.6235 H       1  LIG1        0.0236
     46 H         -13.7742   -6.0708   -0.9114 H       1  LIG1        0.0236
     47 H         -13.8847   -4.4674   -1.6543 H       1  LIG1        0.0236
     48 H         -15.3307   -5.2313   -0.9814 H       1  LIG1        0.0236
     49 H         -14.4682   -3.4729    0.5370 H       1  LIG1        0.0346
     50 H          -7.8097   -4.5255    1.4165 H       1  LIG1        0.1573
@<TRIPOS>BOND
     1     1     2   ar
     2     1     7   ar
     3     2     8   ar
     4     3     5   ar
     5     3     9   ar
     6     4     6   ar
     7     4     9   ar
     8     5    10   ar
     9     6    10   ar
    10     7    21   ar
    11     8    11   ar
    12     8    12    1
    13     9    20    1
    14    10    24    1
    15    11    21   ar
    16    11    22    1
    17    12    25    2
    18    13    23   am
    19    13    24   am
    20    13    26    2
    21    14    16    1
    22    14    22    1
    23    15    17    1
    24    15    22    1
    25    16    23    1
    26    17    23    1
    27    18    20    1
    28    19    20    1
    29     1    27    1
    30     2    28    1
    31     3    29    1
    32     4    30    1
    33     5    31    1
    34     6    32    1
    35     7    33    1
    36    12    34    1
    37    14    35    1
    38    14    36    1
    39    15    37    1
    40    15    38    1
    41    16    39    1
    42    16    40    1
    43    17    41    1
    44    17    42    1
    45    18    43    1
    46    18    44    1
    47    18    45    1
    48    19    46    1
    49    19    47    1
    50    19    48    1
    51    20    49    1
    52    24    50    1
