@<TRIPOS>MOLECULE
ChEBML203819
 69 72 0 0 0
SMALL
USER_CHARGES

@<TRIPOS>ATOM
      1 C          -6.2735    4.0906   -2.3210 C.ar    1  LIG1       -0.0418
      2 C         -10.2456   -5.3151    0.9147 C.ar    1  LIG1       -0.0383
      3 C          -6.7526    3.0560   -3.1168 C.ar    1  LIG1       -0.0360
      4 C         -11.5957   -5.6610    1.0215 C.ar    1  LIG1       -0.0377
      5 C         -12.1624   -3.4368    1.8148 C.ar    1  LIG1       -0.0304
      6 C         -10.0854   -1.8673    1.9786 C.ar    1  LIG1       -0.0261
      7 C          -5.1770    3.8336   -1.5138 C.ar    1  LIG1        0.0292
      8 C         -10.8069   -3.0653    1.7154 C.ar    1  LIG1       -0.0003
      9 C          -9.8816   -4.0111    1.2686 C.ar    1  LIG1        0.0379
     10 C         -12.5410   -4.7379    1.4643 C.ar    1  LIG1        0.0437
     11 C          -6.1295    1.8135   -3.0817 C.ar    1  LIG1        0.0670
     12 C          -8.7608   -2.1046    1.6921 C.ar    1  LIG1        0.0947
     13 C          -5.0394    1.6585   -2.2406 C.ar    1  LIG1        0.1416
     14 C          -7.6517   -1.2025    1.7999 C.2     1  LIG1        0.2598
     15 C          -6.2806   -1.0190   -1.5138 C.3     1  LIG1       -0.0185
     16 C          -4.6299   -0.1179    0.1796 C.3     1  LIG1       -0.0185
     17 C          -6.8022   -1.9764   -0.4432 C.3     1  LIG1        0.0162
     18 C          -5.2082   -1.0846    1.2142 C.3     1  LIG1        0.0162
     19 C          -4.8237   -0.6115   -1.2602 C.3     1  LIG1        0.0274
     20 C          -8.0019   -0.3546   -5.5082 C.3     1  LIG1       -0.0497
     21 C          -3.6688   -1.0620   -3.9853 C.3     1  LIG1       -0.0467
     22 C          -2.0529   -0.1762   -2.2677 C.3     1  LIG1       -0.0467
     23 C         -15.1508   -3.6928   -0.3450 C.3     1  LIG1        0.0225
     24 C          -7.7374    0.9081   -4.7610 C.3     1  LIG1        0.0056
     25 C          -3.2939    0.1163   -3.0983 C.3     1  LIG1        0.0188
     26 N          -4.5454    2.6399   -1.4528 N.ar    1  LIG1       -0.2394
     27 N          -8.6478   -3.4003    1.2643 N.ar    1  LIG1       -0.3101
     28 N          -6.5997   -1.4114    0.8979 N.am    1  LIG1       -0.2966
     29 N          -6.6129    0.7650   -3.8865 N.pl3   1  LIG1       -0.3419
     30 N         -13.9135   -5.1223    1.5623 N.pl3   1  LIG1       -0.2633
     31 N          -4.4069    0.4112   -2.1984 N.pl3   1  LIG1       -0.3086
     32 O          -7.6548   -0.3085    2.6445 O.2     1  LIG1       -0.2702
     33 O         -13.8792   -5.8939   -0.8976 O.2     1  LIG1       -0.4814
     34 O         -16.0524   -6.0439    0.3674 O.2     1  LIG1       -0.4814
     35 S         -14.7929   -5.3765    0.1039 S.O2    1  LIG1       -0.1957
     36 H          -6.7434    5.0674   -2.3321 H       1  LIG1        0.0639
     37 H          -9.5104   -6.0344    0.5698 H       1  LIG1        0.0643
     38 H          -7.6114    3.2300   -3.7596 H       1  LIG1        0.0644
     39 H         -11.9011   -6.6698    0.7518 H       1  LIG1        0.0643
     40 H         -12.9019   -2.7191    2.1599 H       1  LIG1        0.0650
     41 H         -10.4960   -0.9334    2.3393 H       1  LIG1        0.0651
     42 H          -4.7644    4.6064   -0.8737 H       1  LIG1        0.0840
     43 H          -6.3833   -1.4825   -2.5021 H       1  LIG1        0.0302
     44 H          -6.9032   -0.1151   -1.5132 H       1  LIG1        0.0302
     45 H          -5.1365    0.8503    0.2855 H       1  LIG1        0.0302
     46 H          -3.5671    0.0509    0.3900 H       1  LIG1        0.0302
     47 H          -7.8572   -2.1881   -0.6353 H       1  LIG1        0.0470
     48 H          -6.2743   -2.9361   -0.4776 H       1  LIG1        0.0470
     49 H          -4.6444   -2.0245    1.2276 H       1  LIG1        0.0470
     50 H          -5.1292   -0.6442    2.2131 H       1  LIG1        0.0470
     51 H          -4.1825   -1.4857   -1.4217 H       1  LIG1        0.0507
     52 H          -7.1389   -0.6334   -6.1225 H       1  LIG1        0.0246
     53 H          -8.2347   -1.1741   -4.8195 H       1  LIG1        0.0246
     54 H          -8.8616   -0.2183   -6.1753 H       1  LIG1        0.0246
     55 H          -3.8505   -1.9596   -3.3851 H       1  LIG1        0.0249
     56 H          -4.5728   -0.8524   -4.5680 H       1  LIG1        0.0249
     57 H          -2.8647   -1.2857   -4.6948 H       1  LIG1        0.0249
     58 H          -2.2067   -1.0592   -1.6377 H       1  LIG1        0.0249
     59 H          -1.8130    0.6689   -1.6141 H       1  LIG1        0.0249
     60 H          -1.1827   -0.3734   -2.9037 H       1  LIG1        0.0249
     61 H         -15.7200   -3.6981   -1.2759 H       1  LIG1        0.0442
     62 H         -15.7345   -3.2392    0.4575 H       1  LIG1        0.0442
     63 H         -14.2061   -3.1635   -0.4774 H       1  LIG1        0.0442
     64 H          -8.6032    1.1805   -4.1499 H       1  LIG1        0.0463
     65 H          -7.5207    1.7291   -5.4509 H       1  LIG1        0.0463
     66 H          -3.1171    1.0016   -3.7190 H       1  LIG1        0.0500
     67 H          -7.7851   -3.8472    0.9853 H       1  LIG1        0.1529
     68 H          -6.1331   -0.1150   -3.8280 H       1  LIG1        0.1466
     69 H         -14.4396   -4.6290    2.3021 H       1  LIG1        0.1702
@<TRIPOS>BOND
     1     1     3   ar
     2     1     7   ar
     3     2     4   ar
     4     2     9   ar
     5     3    11   ar
     6     4    10   ar
     7     5     8   ar
     8     5    10   ar
     9     6     8   ar
    10     6    12   ar
    11     7    26   ar
    12     8     9   ar
    13     9    27   ar
    14    10    30    1
    15    11    13   ar
    16    11    29    1
    17    12    14    1
    18    12    27   ar
    19    13    26   ar
    20    13    31    1
    21    14    28   am
    22    14    32    2
    23    15    17    1
    24    15    19    1
    25    16    18    1
    26    16    19    1
    27    17    28    1
    28    18    28    1
    29    19    31    1
    30    20    24    1
    31    21    25    1
    32    22    25    1
    33    23    35    1
    34    24    29    1
    35    25    31    1
    36    30    35    1
    37    33    35    2
    38    34    35    2
    39     1    36    1
    40     2    37    1
    41     3    38    1
    42     4    39    1
    43     5    40    1
    44     6    41    1
    45     7    42    1
    46    15    43    1
    47    15    44    1
    48    16    45    1
    49    16    46    1
    50    17    47    1
    51    17    48    1
    52    18    49    1
    53    18    50    1
    54    19    51    1
    55    20    52    1
    56    20    53    1
    57    20    54    1
    58    21    55    1
    59    21    56    1
    60    21    57    1
    61    22    58    1
    62    22    59    1
    63    22    60    1
    64    23    61    1
    65    23    62    1
    66    23    63    1
    67    24    64    1
    68    24    65    1
    69    25    66    1
    70    27    67    1
    71    29    68    1
    72    30    69    1
