@<TRIPOS>MOLECULE
ChEBML512821
 36 38 0 0 0
SMALL
USER_CHARGES

@<TRIPOS>ATOM
      1 C          -1.6115    0.8927   -2.9364 C.ar    1  LIG1       -0.0622
      2 C         -12.8425   -3.9274    2.2002 C.ar    1  LIG1       -0.0615
      3 C          -2.7159    1.7416   -3.0098 C.ar    1  LIG1       -0.0620
      4 C          -1.7635   -0.4101   -2.4616 C.ar    1  LIG1       -0.0620
      5 C         -12.2752   -5.1369    1.8041 C.ar    1  LIG1       -0.0603
      6 C         -12.0795   -2.7543    2.2311 C.ar    1  LIG1       -0.0530
      7 C          -3.9723    1.2877   -2.6085 C.ar    1  LIG1       -0.0590
      8 C          -3.0200   -0.8639   -2.0603 C.ar    1  LIG1       -0.0590
      9 C         -10.9313   -5.2136    1.4272 C.ar    1  LIG1       -0.0402
     10 C          -9.6795   -1.8429    1.7692 C.ar    1  LIG1       -0.0262
     11 C         -10.7224   -2.8071    1.8555 C.ar    1  LIG1       -0.0022
     12 C          -4.1244   -0.0151   -2.1337 C.ar    1  LIG1       -0.0464
     13 C         -10.1808   -4.0330    1.4630 C.ar    1  LIG1        0.0378
     14 C          -8.5459   -2.4900    1.3343 C.ar    1  LIG1        0.0944
     15 C          -7.2480   -1.9420    1.0968 C.2     1  LIG1        0.2572
     16 C          -5.4832   -0.5066   -1.6992 C.3     1  LIG1       -0.0122
     17 C          -5.4108   -1.5611   -0.5976 C.3     1  LIG1        0.0154
     18 N          -8.8582   -3.8106    1.1521 N.ar    1  LIG1       -0.3101
     19 N          -6.7152   -2.0450   -0.2062 N.am    1  LIG1       -0.3099
     20 O          -6.5846   -1.4016    2.0177 O.2     1  LIG1       -0.2704
     21 H          -0.6335    1.2458   -3.2503 H       1  LIG1        0.0622
     22 H         -13.8900   -3.8927    2.4881 H       1  LIG1        0.0623
     23 H          -2.5979    2.7556   -3.3806 H       1  LIG1        0.0623
     24 H          -0.9042   -1.0716   -2.4054 H       1  LIG1        0.0623
     25 H         -12.8862   -6.0356    1.7879 H       1  LIG1        0.0623
     26 H         -12.5346   -1.8179    2.5416 H       1  LIG1        0.0629
     27 H          -4.8271    1.9562   -2.6691 H       1  LIG1        0.0625
     28 H          -3.1290   -1.8804   -1.6916 H       1  LIG1        0.0625
     29 H         -10.4898   -6.1554    1.1192 H       1  LIG1        0.0642
     30 H          -9.7551   -0.7889    2.0015 H       1  LIG1        0.0651
     31 H          -5.9961   -0.9293   -2.5724 H       1  LIG1        0.0332
     32 H          -6.0969    0.3417   -1.3702 H       1  LIG1        0.0332
     33 H          -4.8445   -2.4294   -0.9491 H       1  LIG1        0.0470
     34 H          -4.9190   -1.1738    0.3008 H       1  LIG1        0.0470
     35 H          -8.2134   -4.5221    0.8363 H       1  LIG1        0.1529
     36 H          -7.2523   -2.5435   -0.9082 H       1  LIG1        0.1497
@<TRIPOS>BOND
     1     1     3   ar
     2     1     4   ar
     3     2     5   ar
     4     2     6   ar
     5     3     7   ar
     6     4     8   ar
     7     5     9   ar
     8     6    11   ar
     9     7    12   ar
    10     8    12   ar
    11     9    13   ar
    12    10    11   ar
    13    10    14   ar
    14    11    13   ar
    15    12    16    1
    16    13    18   ar
    17    14    15    1
    18    14    18   ar
    19    15    19   am
    20    15    20    2
    21    16    17    1
    22    17    19    1
    23     1    21    1
    24     2    22    1
    25     3    23    1
    26     4    24    1
    27     5    25    1
    28     6    26    1
    29     7    27    1
    30     8    28    1
    31     9    29    1
    32    10    30    1
    33    16    31    1
    34    16    32    1
    35    17    33    1
    36    17    34    1
    37    18    35    1
    38    19    36    1
