@<TRIPOS>MOLECULE
ChEBML52743
 54 57 0 0 0
SMALL
USER_CHARGES

@<TRIPOS>ATOM
      1 C          -2.3380    1.0010   -3.4553 C.ar    1  LIG1       -0.0418
      2 C         -10.4178   -5.1327    0.4492 C.ar    1  LIG1       -0.0383
      3 C          -1.8035   -0.2216   -3.0717 C.ar    1  LIG1       -0.0360
      4 C         -11.7372   -5.4706    0.6429 C.ar    1  LIG1       -0.0394
      5 C         -12.0927   -3.4862    1.9588 C.ar    1  LIG1       -0.0321
      6 C          -9.9671   -2.0329    2.1999 C.ar    1  LIG1       -0.0261
      7 C          -3.4837    1.4623   -2.8395 C.ar    1  LIG1        0.0292
      8 C         -10.7507   -3.1306    1.7685 C.ar    1  LIG1       -0.0004
      9 C          -9.9086   -3.9630    1.0065 C.ar    1  LIG1        0.0379
     10 C         -12.5769   -4.6501    1.3970 C.ar    1  LIG1        0.0241
     11 C          -2.4475   -0.9411   -2.0738 C.ar    1  LIG1        0.0672
     12 C          -8.7098   -2.2052    1.7141 C.ar    1  LIG1        0.0947
     13 C          -3.6065   -0.4131   -1.4994 C.ar    1  LIG1        0.1412
     14 C          -7.5799   -1.2889    1.9293 C.2     1  LIG1        0.2599
     15 C          -4.4522   -0.1990    0.6235 C.3     1  LIG1        0.0288
     16 C          -5.6000   -1.4471   -1.0255 C.3     1  LIG1        0.0288
     17 C          -5.1566   -0.9242    1.7746 C.3     1  LIG1        0.0303
     18 C          -6.3801   -2.2548    0.0169 C.3     1  LIG1        0.0303
     19 C           0.4956   -2.2273   -1.7804 C.3     1  LIG1       -0.0470
     20 C          -0.8433   -4.3021   -2.1614 C.3     1  LIG1       -0.0470
     21 C          -0.8096   -2.7844   -2.3522 C.3     1  LIG1        0.0142
     22 N          -4.0772    0.7586   -1.8927 N.ar    1  LIG1       -0.2394
     23 N          -8.6636   -3.3749    0.9814 N.ar    1  LIG1       -0.3101
     24 N          -4.2683   -1.1238   -0.5009 N.pl3   1  LIG1       -0.3112
     25 N          -6.4213   -1.4810    1.2682 N.am    1  LIG1       -0.2936
     26 N         -13.9165   -5.0093    1.5848 N.pl3   1  LIG1       -0.3583
     27 N          -1.9463   -2.1791   -1.6537 N.pl3   1  LIG1       -0.3393
     28 O          -7.6911   -0.3576    2.7039 O.2     1  LIG1       -0.2701
     29 H          -1.8614    1.5858   -4.2281 H       1  LIG1        0.0639
     30 H          -9.7765   -5.7753   -0.1359 H       1  LIG1        0.0643
     31 H          -0.9076   -0.6040   -3.5382 H       1  LIG1        0.0644
     32 H         -12.1265   -6.3792    0.2077 H       1  LIG1        0.0643
     33 H         -12.7447   -2.8530    2.5423 H       1  LIG1        0.0649
     34 H         -10.3077   -1.2068    2.8063 H       1  LIG1        0.0651
     35 H          -3.9009    2.4132   -3.1361 H       1  LIG1        0.0840
     36 H          -3.4800    0.1597    0.9613 H       1  LIG1        0.0485
     37 H          -5.0593    0.6472    0.3020 H       1  LIG1        0.0485
     38 H          -6.1370   -0.5247   -1.2463 H       1  LIG1        0.0485
     39 H          -5.4979   -2.0347   -1.9378 H       1  LIG1        0.0485
     40 H          -4.5223   -1.7302    2.1436 H       1  LIG1        0.0486
     41 H          -5.3624   -0.2201    2.5809 H       1  LIG1        0.0486
     42 H          -5.8814   -3.2081    0.1910 H       1  LIG1        0.0486
     43 H          -7.3951   -2.4305   -0.3395 H       1  LIG1        0.0486
     44 H           0.5558   -2.4613   -0.7175 H       1  LIG1        0.0249
     45 H           1.3414   -2.6776   -2.3000 H       1  LIG1        0.0249
     46 H           0.5195   -1.1461   -1.9163 H       1  LIG1        0.0249
     47 H          -0.7831   -4.5361   -1.0986 H       1  LIG1        0.0249
     48 H          -1.7731   -4.6989   -2.5688 H       1  LIG1        0.0249
     49 H           0.0024   -4.7524   -2.6811 H       1  LIG1        0.0249
     50 H          -0.8698   -2.5503   -3.4151 H       1  LIG1        0.0497
     51 H          -7.8824   -3.7256    0.5256 H       1  LIG1        0.1529
     52 H         -14.5022   -4.4408    2.1088 H       1  LIG1        0.1426
     53 H         -14.2592   -5.8269    1.1910 H       1  LIG1        0.1426
     54 H          -2.3518   -2.6360   -0.9002 H       1  LIG1        0.1469
@<TRIPOS>BOND
     1     1     3   ar
     2     1     7   ar
     3     2     4   ar
     4     2     9   ar
     5     3    11   ar
     6     4    10   ar
     7     5     8   ar
     8     5    10   ar
     9     6     8   ar
    10     6    12   ar
    11     7    22   ar
    12     8     9   ar
    13     9    23   ar
    14    10    26    1
    15    11    13   ar
    16    11    27    1
    17    12    14    1
    18    12    23   ar
    19    13    22   ar
    20    13    24    1
    21    14    25   am
    22    14    28    2
    23    15    17    1
    24    15    24    1
    25    16    18    1
    26    16    24    1
    27    17    25    1
    28    18    25    1
    29    19    21    1
    30    20    21    1
    31    21    27    1
    32     1    29    1
    33     2    30    1
    34     3    31    1
    35     4    32    1
    36     5    33    1
    37     6    34    1
    38     7    35    1
    39    15    36    1
    40    15    37    1
    41    16    38    1
    42    16    39    1
    43    17    40    1
    44    17    41    1
    45    18    42    1
    46    18    43    1
    47    19    44    1
    48    19    45    1
    49    19    46    1
    50    20    47    1
    51    20    48    1
    52    20    49    1
    53    21    50    1
    54    23    51    1
    55    26    52    1
    56    26    53    1
    57    27    54    1
