@<TRIPOS>MOLECULE
ChEBML331732
 39 41 0 0 0
SMALL
USER_CHARGES

@<TRIPOS>ATOM
      1 C         -12.0689   -3.4028    1.4296 C.ar    1  LIG1       -0.0500
      2 C         -10.0108   -1.8400    1.7851 C.ar    1  LIG1       -0.0262
      3 C         -11.4317   -5.6855    0.9004 C.ar    1  LIG1       -0.0386
      4 C         -10.7071   -3.0496    1.5074 C.ar    1  LIG1       -0.0004
      5 C         -12.4152   -4.7242    1.1253 C.ar    1  LIG1       -0.0489
      6 C          -9.7433   -4.0337    1.2773 C.ar    1  LIG1        0.0567
      7 C         -10.0746   -5.3586    0.9719 C.ar    1  LIG1        0.0628
      8 C          -8.6630   -2.1082    1.7195 C.ar    1  LIG1        0.0947
      9 C          -7.5658   -1.2085    1.9250 C.2     1  LIG1        0.2602
     10 C          -6.4034   -2.1587   -0.0999 C.3     1  LIG1        0.0539
     11 C          -5.0605   -1.1566    1.7022 C.3     1  LIG1        0.0539
     12 C          -5.6932   -1.3034   -1.1388 C.3     1  LIG1       -0.0183
     13 C          -4.3185   -0.2888    0.6951 C.3     1  LIG1       -0.0183
     14 C         -13.8559   -5.1056    1.0413 C.3     1  LIG1       -0.0397
     15 C          -3.5029   -0.2233   -1.6647 C.3     1  LIG1       -0.0453
     16 N          -8.5115   -3.4338    1.4125 N.ar    1  LIG1       -0.3089
     17 N          -6.3958   -1.4942    1.2096 N.am    1  LIG1       -0.2863
     18 N          -4.2963   -0.9912   -0.6451 N.4     1  LIG1        0.2462
     19 O          -7.6775   -0.2522    2.6901 O.2     1  LIG1       -0.2701
     20 CL         -8.8719   -6.5522    0.6926 Cl      1  LIG1       -0.0822
     21 H         -12.8390   -2.6562    1.6044 H       1  LIG1        0.0632
     22 H         -10.4533   -0.8783    2.0086 H       1  LIG1        0.0651
     23 H         -11.7284   -6.7063    0.6655 H       1  LIG1        0.0642
     24 H          -7.4201   -2.3711   -0.4396 H       1  LIG1        0.0525
     25 H          -5.8947   -3.1227    0.0217 H       1  LIG1        0.0525
     26 H          -4.5252   -2.0984    1.8722 H       1  LIG1        0.0525
     27 H          -5.1204   -0.6363    2.6632 H       1  LIG1        0.0525
     28 H          -5.5956   -1.8401   -2.0878 H       1  LIG1        0.0831
     29 H          -6.2052   -0.3481   -1.3007 H       1  LIG1        0.0831
     30 H          -4.8130    0.6781    0.5492 H       1  LIG1        0.0831
     31 H          -3.2800   -0.1326    1.0040 H       1  LIG1        0.0831
     32 H         -14.2263   -4.9713    0.0181 H       1  LIG1        0.0280
     33 H         -14.0073   -6.1526    1.3327 H       1  LIG1        0.0280
     34 H         -14.4683   -4.4952    1.7171 H       1  LIG1        0.0280
     35 H          -4.0008    0.7352   -1.8222 H       1  LIG1        0.0777
     36 H          -2.4960   -0.0821   -1.2672 H       1  LIG1        0.0777
     37 H          -3.4831   -0.8110   -2.5845 H       1  LIG1        0.0777
     38 H          -7.6254   -3.9073    1.3007 H       1  LIG1        0.1530
     39 H          -3.8106   -1.8891   -0.5120 H       1  LIG1        0.2001
@<TRIPOS>BOND
     1     1     4   ar
     2     1     5   ar
     3     2     4   ar
     4     2     8   ar
     5     3     5   ar
     6     3     7   ar
     7     4     6   ar
     8     5    14    1
     9     6     7   ar
    10     6    16   ar
    11     7    20    1
    12     8     9    1
    13     8    16   ar
    14     9    17   am
    15     9    19    2
    16    10    12    1
    17    10    17    1
    18    11    13    1
    19    11    17    1
    20    12    18    1
    21    13    18    1
    22    15    18    1
    23     1    21    1
    24     2    22    1
    25     3    23    1
    26    10    24    1
    27    10    25    1
    28    11    26    1
    29    11    27    1
    30    12    28    1
    31    12    29    1
    32    13    30    1
    33    13    31    1
    34    14    32    1
    35    14    33    1
    36    14    34    1
    37    15    35    1
    38    15    36    1
    39    15    37    1
    40    16    38    1
    41    18    39    1
