@<TRIPOS>MOLECULE
ChEBML871958
 54 57 0 0 0
SMALL
USER_CHARGES

@<TRIPOS>ATOM
      1 C          -3.0678   -1.3146   -1.3023 C.ar    1  LIG1       -0.0590
      2 C          -3.7906    0.9730   -1.0168 C.ar    1  LIG1       -0.0590
      3 C          -3.7123   -1.6663   -0.1163 C.ar    1  LIG1       -0.0572
      4 C          -4.4352    0.6213    0.1691 C.ar    1  LIG1       -0.0572
      5 C          -9.9095   -5.1668    0.2802 C.ar    1  LIG1       -0.0288
      6 C         -11.2326   -5.6142    0.2183 C.ar    1  LIG1       -0.0369
      7 C         -12.0301   -3.6514    1.4218 C.ar    1  LIG1       -0.0293
      8 C         -10.7069   -3.1821    1.4955 C.ar    1  LIG1        0.0129
      9 C          -3.1068    0.0050   -1.7525 C.ar    1  LIG1       -0.0511
     10 C          -4.3961   -0.6983    0.6193 C.ar    1  LIG1       -0.0308
     11 C         -10.0629   -2.0396    2.0394 C.ar    1  LIG1       -0.0048
     12 C          -9.6965   -3.9503    0.9260 C.ar    1  LIG1        0.0900
     13 C         -12.2757   -4.8720    0.7780 C.ar    1  LIG1        0.0552
     14 C          -8.7219   -2.1847    1.7691 C.ar    1  LIG1        0.1480
     15 C          -7.6015   -1.3587    2.0689 C.2     1  LIG1        0.2673
     16 C         -14.4824   -4.7249   -1.8749 C.3     1  LIG1        0.0487
     17 C         -15.9639   -3.8622   -0.1108 C.3     1  LIG1        0.0487
     18 C         -14.8790   -3.5246   -2.7229 C.3     1  LIG1        0.0637
     19 C         -16.2986   -2.6984   -1.0332 C.3     1  LIG1        0.0637
     20 C          -2.4183    0.3818   -3.0204 C.3     1  LIG1       -0.0398
     21 C         -10.7055   -0.9181    2.7521 C.3     1  LIG1       -0.0363
     22 C          -5.0911   -1.0780    1.8949 C.3     1  LIG1        0.0367
     23 N         -14.5917   -4.3511   -0.4342 N.3     1  LIG1       -0.2723
     24 N          -6.3233   -1.7916    1.6477 N.am    1  LIG1       -0.3054
     25 O          -7.7265   -0.2807    2.7082 O.2     1  LIG1       -0.2695
     26 O         -13.8843   -6.7828    0.0473 O.2     1  LIG1       -0.4762
     27 O         -14.5564   -5.2919    1.9637 O.2     1  LIG1       -0.4762
     28 O          -8.4894   -3.3407    1.0941 O.2     1  LIG1       -0.3039
     29 O         -16.2070   -3.1061   -2.4000 O.3     1  LIG1       -0.3780
     30 S         -13.9304   -5.4781    0.6721 S.O2    1  LIG1       -0.1656
     31 H          -2.5371   -2.0754   -1.8688 H       1  LIG1        0.0625
     32 H          -3.8272    2.0032   -1.3611 H       1  LIG1        0.0625
     33 H          -3.6780   -2.6972    0.2257 H       1  LIG1        0.0626
     34 H          -4.9658    1.3815    0.7364 H       1  LIG1        0.0626
     35 H          -9.0961   -5.7373   -0.1517 H       1  LIG1        0.0651
     36 H         -11.4417   -6.5596   -0.2778 H       1  LIG1        0.0643
     37 H         -12.8446   -3.0776    1.8546 H       1  LIG1        0.0649
     38 H         -15.1494   -5.5715   -2.0746 H       1  LIG1        0.0506
     39 H         -13.4528   -5.0153   -2.1066 H       1  LIG1        0.0506
     40 H         -16.0042   -3.5297    0.9313 H       1  LIG1        0.0506
     41 H         -16.6769   -4.6820   -0.2556 H       1  LIG1        0.0506
     42 H         -14.1889   -2.6844   -2.5791 H       1  LIG1        0.0583
     43 H         -14.8617   -3.7935   -3.7836 H       1  LIG1        0.0583
     44 H         -17.3241   -2.3611   -0.8530 H       1  LIG1        0.0583
     45 H         -15.6309   -1.8453   -0.8638 H       1  LIG1        0.0583
     46 H          -3.1004    0.2731   -3.8725 H       1  LIG1        0.0280
     47 H          -2.0645    1.4205   -2.9885 H       1  LIG1        0.0280
     48 H          -1.5368   -0.2484   -3.1978 H       1  LIG1        0.0280
     49 H         -10.7533   -1.1114    3.8363 H       1  LIG1        0.0281
     50 H         -10.1628    0.0313    2.6047 H       1  LIG1        0.0281
     51 H         -11.7352   -0.7384    2.3980 H       1  LIG1        0.0281
     52 H          -4.4482   -1.7178    2.5092 H       1  LIG1        0.0518
     53 H          -5.3316   -0.1910    2.4904 H       1  LIG1        0.0518
     54 H          -6.2499   -2.6948    1.1910 H       1  LIG1        0.1501
@<TRIPOS>BOND
     1     1     3   ar
     2     1     9   ar
     3     2     4   ar
     4     2     9   ar
     5     3    10   ar
     6     4    10   ar
     7     5     6   ar
     8     5    12   ar
     9     6    13   ar
    10     7     8   ar
    11     7    13   ar
    12     8    11   ar
    13     8    12   ar
    14     9    20    1
    15    10    22    1
    16    11    14   ar
    17    11    21    1
    18    12    28   ar
    19    13    30    1
    20    14    15    1
    21    14    28   ar
    22    15    24   am
    23    15    25    2
    24    16    18    1
    25    16    23    1
    26    17    19    1
    27    17    23    1
    28    18    29    1
    29    19    29    1
    30    22    24    1
    31    23    30    1
    32    26    30    2
    33    27    30    2
    34     1    31    1
    35     2    32    1
    36     3    33    1
    37     4    34    1
    38     5    35    1
    39     6    36    1
    40     7    37    1
    41    16    38    1
    42    16    39    1
    43    17    40    1
    44    17    41    1
    45    18    42    1
    46    18    43    1
    47    19    44    1
    48    19    45    1
    49    20    46    1
    50    20    47    1
    51    20    48    1
    52    21    49    1
    53    21    50    1
    54    21    51    1
    55    22    52    1
    56    22    53    1
    57    24    54    1
