@<TRIPOS>MOLECULE
ChEBML347777
 37 40 0 0 0
SMALL
USER_CHARGES

@<TRIPOS>ATOM
      1 C          -3.6144   -2.1438   -1.1418 C.ar    1  LIG1       -0.0504
      2 C         -10.2559   -5.2483    0.6039 C.ar    1  LIG1       -0.0376
      3 C          -2.9135   -1.3436   -2.0513 C.ar    1  LIG1       -0.0311
      4 C         -11.5892   -5.6426    0.7484 C.ar    1  LIG1       -0.0302
      5 C         -12.1687   -3.5148    1.7652 C.ar    1  LIG1       -0.0229
      6 C          -5.6568   -2.1173    0.4806 C.ar    1  LIG1       -0.0276
      7 C         -10.1264   -1.9041    1.9618 C.ar    1  LIG1       -0.0275
      8 C          -4.4224    0.5197   -1.6568 C.ar    1  LIG1       -0.0098
      9 C          -4.7361   -1.6087   -0.4778 C.ar    1  LIG1       -0.0021
     10 C         -10.8303   -3.0954    1.6300 C.ar    1  LIG1        0.0003
     11 C          -9.9067   -3.9700    1.0536 C.ar    1  LIG1        0.0379
     12 C          -5.1134   -0.2919   -0.7500 C.ar    1  LIG1        0.0404
     13 C         -12.5325   -4.7909    1.3198 C.ar    1  LIG1        0.0720
     14 C          -3.3130   -0.0327   -2.3033 C.ar    1  LIG1        0.0765
     15 C          -6.5583   -1.1180    0.7665 C.ar    1  LIG1        0.0811
     16 C          -8.8136   -2.0754    1.5877 C.ar    1  LIG1        0.0811
     17 C          -7.7273   -1.1566    1.7185 C.2     1  LIG1        0.2206
     18 C          -3.0693    2.0582   -3.4101 C.3     1  LIG1        0.0422
     19 N          -8.6908   -3.3244    1.0408 N.ar    1  LIG1       -0.3112
     20 N          -6.2226   -0.0211    0.0192 N.ar    1  LIG1       -0.3111
     21 O          -7.6913   -0.3199    2.6506 O.2     1  LIG1       -0.2856
     22 O         -13.8251   -5.2040    1.4471 O.3     1  LIG1       -0.3609
     23 O          -2.6123    0.7251   -3.1945 O.3     1  LIG1       -0.3492
     24 H          -3.2931   -3.1646   -0.9562 H       1  LIG1        0.0630
     25 H          -9.5223   -5.9120    0.1585 H       1  LIG1        0.0643
     26 H          -2.0480   -1.7581   -2.5627 H       1  LIG1        0.0650
     27 H         -11.8870   -6.6313    0.4068 H       1  LIG1        0.0651
     28 H         -12.9104   -2.8564    2.2091 H       1  LIG1        0.0657
     29 H          -5.6565   -3.1094    0.9121 H       1  LIG1        0.0651
     30 H         -10.5403   -1.0181    2.4251 H       1  LIG1        0.0651
     31 H          -4.7367    1.5402   -1.8500 H       1  LIG1        0.0670
     32 H          -2.4243    2.5515   -4.1413 H       1  LIG1        0.0535
     33 H          -3.0533    2.6071   -2.4651 H       1  LIG1        0.0535
     34 H          -4.0921    2.0257   -3.7929 H       1  LIG1        0.0535
     35 H          -7.8334   -3.7189    0.6786 H       1  LIG1        0.1529
     36 H          -6.7142    0.8620    0.0299 H       1  LIG1        0.1529
     37 H         -14.3596   -4.5078    1.8595 H       1  LIG1        0.2182
@<TRIPOS>BOND
     1     1     3   ar
     2     1     9   ar
     3     2     4   ar
     4     2    11   ar
     5     3    14   ar
     6     4    13   ar
     7     5    10   ar
     8     5    13   ar
     9     6     9   ar
    10     6    15   ar
    11     7    10   ar
    12     7    16   ar
    13     8    12   ar
    14     8    14   ar
    15     9    12   ar
    16    10    11   ar
    17    11    19   ar
    18    12    20   ar
    19    13    22    1
    20    14    23    1
    21    15    17    1
    22    15    20   ar
    23    16    17    1
    24    16    19   ar
    25    17    21    2
    26    18    23    1
    27     1    24    1
    28     2    25    1
    29     3    26    1
    30     4    27    1
    31     5    28    1
    32     6    29    1
    33     7    30    1
    34     8    31    1
    35    18    32    1
    36    18    33    1
    37    18    34    1
    38    19    35    1
    39    20    36    1
    40    22    37    1
