@<TRIPOS>MOLECULE
ChEBML52483
 56 59 0 0 0
SMALL
USER_CHARGES

@<TRIPOS>ATOM
      1 C          -2.3492    1.0052   -3.4469 C.ar    1  LIG1       -0.0418
      2 C         -12.1124   -3.4444    2.0010 C.ar    1  LIG1       -0.0504
      3 C          -1.7987   -0.2113   -3.0665 C.ar    1  LIG1       -0.0360
      4 C         -12.6342   -4.5609    1.4187 C.ar    1  LIG1       -0.0311
      5 C          -9.9492   -2.0484    2.2452 C.ar    1  LIG1       -0.0262
      6 C         -10.5092   -5.0726    0.4007 C.ar    1  LIG1       -0.0098
      7 C          -3.5129    1.4395   -2.8455 C.ar    1  LIG1        0.0292
      8 C         -10.7664   -3.1117    1.7932 C.ar    1  LIG1       -0.0020
      9 C          -9.9598   -3.9348    0.9823 C.ar    1  LIG1        0.0404
     10 C          -2.4426   -0.9497   -2.0825 C.ar    1  LIG1        0.0672
     11 C         -11.8400   -5.3785    0.6149 C.ar    1  LIG1        0.0765
     12 C          -8.7068   -2.2304    1.7251 C.ar    1  LIG1        0.0947
     13 C          -3.6206   -0.4489   -1.5224 C.ar    1  LIG1        0.1412
     14 C          -7.5526   -1.3489    1.9471 C.2     1  LIG1        0.2599
     15 C          -4.4218   -0.2916    0.6226 C.3     1  LIG1        0.0288
     16 C          -5.6313   -1.4487   -1.0485 C.3     1  LIG1        0.0288
     17 C          -5.1238   -1.0406    1.7599 C.3     1  LIG1        0.0303
     18 C          -6.4123   -2.2793   -0.0184 C.3     1  LIG1        0.0303
     19 C           0.5220   -2.1724   -1.7390 C.3     1  LIG1       -0.0470
     20 C          -0.7620   -4.2732   -2.1634 C.3     1  LIG1       -0.0470
     21 C         -13.7483   -6.5351    0.4423 C.3     1  LIG1        0.0422
     22 C          -0.7585   -2.7537   -2.3417 C.3     1  LIG1        0.0142
     23 N          -4.1090    0.7156   -1.9159 N.ar    1  LIG1       -0.2394
     24 N          -8.7026   -3.3782    0.9533 N.ar    1  LIG1       -0.3100
     25 N          -4.2824   -1.1787   -0.5379 N.pl3   1  LIG1       -0.3112
     26 N          -6.4114   -1.5462    1.2576 N.am    1  LIG1       -0.2936
     27 N          -1.9224   -2.1797   -1.6619 N.pl3   1  LIG1       -0.3393
     28 O          -7.6270   -0.4407    2.7533 O.2     1  LIG1       -0.2701
     29 O         -12.3771   -6.4872    0.0428 O.3     1  LIG1       -0.3492
     30 H          -1.8713    1.6059   -4.2067 H       1  LIG1        0.0639
     31 H         -12.7351   -2.8167    2.6213 H       1  LIG1        0.0630
     32 H          -0.8890   -0.5730   -3.5225 H       1  LIG1        0.0644
     33 H         -13.6714   -4.8144    1.5808 H       1  LIG1        0.0650
     34 H         -10.2578   -1.2371    2.8879 H       1  LIG1        0.0651
     35 H          -9.8990   -5.7127   -0.2193 H       1  LIG1        0.0670
     36 H          -3.9428    2.3855   -3.1401 H       1  LIG1        0.0840
     37 H          -5.0124    0.5810    0.3437 H       1  LIG1        0.0485
     38 H          -3.4344    0.0296    0.9546 H       1  LIG1        0.0485
     39 H          -6.1480   -0.5054   -1.2253 H       1  LIG1        0.0485
     40 H          -5.5611   -2.0047   -1.9833 H       1  LIG1        0.0485
     41 H          -5.2965   -0.3617    2.5949 H       1  LIG1        0.0486
     42 H          -4.5040   -1.8755    2.0871 H       1  LIG1        0.0486
     43 H          -5.9329   -3.2491    0.1151 H       1  LIG1        0.0486
     44 H          -7.4377   -2.4202   -0.3602 H       1  LIG1        0.0486
     45 H           0.5659   -2.4138   -0.6770 H       1  LIG1        0.0249
     46 H           1.3880   -2.5995   -2.2448 H       1  LIG1        0.0249
     47 H           0.5244   -1.0898   -1.8660 H       1  LIG1        0.0249
     48 H          -1.6742   -4.6874   -2.5927 H       1  LIG1        0.0249
     49 H           0.1040   -4.7004   -2.6692 H       1  LIG1        0.0249
     50 H          -0.7180   -4.5146   -1.1014 H       1  LIG1        0.0249
     51 H         -13.8083   -6.5929    1.5291 H       1  LIG1        0.0535
     52 H         -14.2588   -5.6359    0.0975 H       1  LIG1        0.0535
     53 H         -14.2236   -7.4131    0.0050 H       1  LIG1        0.0535
     54 H          -0.8025   -2.5124   -3.4037 H       1  LIG1        0.0497
     55 H          -7.9389   -3.7323    0.4713 H       1  LIG1        0.1529
     56 H          -2.3328   -2.6517   -0.9204 H       1  LIG1        0.1469
@<TRIPOS>BOND
     1     1     3   ar
     2     1     7   ar
     3     2     4   ar
     4     2     8   ar
     5     3    10   ar
     6     4    11   ar
     7     5     8   ar
     8     5    12   ar
     9     6     9   ar
    10     6    11   ar
    11     7    23   ar
    12     8     9   ar
    13     9    24   ar
    14    10    13   ar
    15    10    27    1
    16    11    29    1
    17    12    14    1
    18    12    24   ar
    19    13    23   ar
    20    13    25    1
    21    14    26   am
    22    14    28    2
    23    15    17    1
    24    15    25    1
    25    16    18    1
    26    16    25    1
    27    17    26    1
    28    18    26    1
    29    19    22    1
    30    20    22    1
    31    21    29    1
    32    22    27    1
    33     1    30    1
    34     2    31    1
    35     3    32    1
    36     4    33    1
    37     5    34    1
    38     6    35    1
    39     7    36    1
    40    15    37    1
    41    15    38    1
    42    16    39    1
    43    16    40    1
    44    17    41    1
    45    17    42    1
    46    18    43    1
    47    18    44    1
    48    19    45    1
    49    19    46    1
    50    19    47    1
    51    20    48    1
    52    20    49    1
    53    20    50    1
    54    21    51    1
    55    21    52    1
    56    21    53    1
    57    22    54    1
    58    24    55    1
    59    27    56    1
