@<TRIPOS>MOLECULE
ChEBML111616
 42 45 0 0 0
SMALL
USER_CHARGES

@<TRIPOS>ATOM
      1 C          -2.2846    0.0626   -3.8802 C.ar    1  LIG1       -0.0622
      2 C          -2.0520   -0.8523   -2.8535 C.ar    1  LIG1       -0.0618
      3 C          -2.9949    1.2351   -3.6219 C.ar    1  LIG1       -0.0618
      4 C         -12.3393   -4.3501    2.0778 C.ar    1  LIG1       -0.0600
      5 C         -11.5974   -5.3958    1.5239 C.ar    1  LIG1       -0.0602
      6 C          -2.5295   -0.5950   -1.5685 C.ar    1  LIG1       -0.0538
      7 C          -3.4725    1.4924   -2.3370 C.ar    1  LIG1       -0.0538
      8 C         -11.7894   -3.0694    2.2157 C.ar    1  LIG1       -0.0344
      9 C         -10.2823   -5.2017    1.0884 C.ar    1  LIG1       -0.0385
     10 C          -3.2398    0.5773   -1.3101 C.ar    1  LIG1       -0.0042
     11 C         -10.4694   -2.8565    1.7837 C.ar    1  LIG1        0.0866
     12 C          -9.7553   -3.9183    1.2357 C.ar    1  LIG1        0.0576
     13 C          -8.5509   -2.0630    1.2845 C.ar    1  LIG1        0.1257
     14 C          -6.6277   -1.7010    0.0028 C.2     1  LIG1       -0.0338
     15 C          -7.3783   -1.3108    1.0504 C.2     1  LIG1       -0.0011
     16 C          -5.3557   -1.0131   -0.3870 C.3     1  LIG1       -0.0144
     17 C          -6.9618   -0.1334    1.9042 C.3     1  LIG1        0.0150
     18 C          -5.4827    0.2290    1.7683 C.3     1  LIG1       -0.0294
     19 C          -3.7540    0.8547    0.0717 C.3     1  LIG1       -0.0080
     20 N          -9.7052   -1.7124    1.8057 N.ar    1  LIG1       -0.2312
     21 N          -8.5318   -3.3821    0.9254 N.ar    1  LIG1       -0.2976
     22 N          -5.1363    0.3161    0.3042 N.4     1  LIG1        0.2524
     23 H          -1.9115   -0.1372   -4.8805 H       1  LIG1        0.0622
     24 H          -1.4981   -1.7648   -3.0542 H       1  LIG1        0.0623
     25 H          -3.1752    1.9482   -4.4208 H       1  LIG1        0.0623
     26 H         -13.3593   -4.5322    2.4064 H       1  LIG1        0.0623
     27 H         -12.0504   -6.3796    1.4280 H       1  LIG1        0.0623
     28 H          -2.3437   -1.3138   -0.7748 H       1  LIG1        0.0628
     29 H          -4.0250    2.4085   -2.1449 H       1  LIG1        0.0628
     30 H         -12.3746   -2.2639    2.6478 H       1  LIG1        0.0646
     31 H          -9.7051   -6.0122    0.6589 H       1  LIG1        0.0643
     32 H          -6.9186   -2.5528   -0.6085 H       1  LIG1        0.0635
     33 H          -4.5002   -1.6556   -0.1495 H       1  LIG1        0.0863
     34 H          -5.3568   -0.8016   -1.4615 H       1  LIG1        0.0863
     35 H          -7.5808    0.7309    1.6317 H       1  LIG1        0.0371
     36 H          -7.1664   -0.3520    2.9594 H       1  LIG1        0.0371
     37 H          -5.2817    1.2063    2.2196 H       1  LIG1        0.0818
     38 H          -4.8289   -0.5252    2.2215 H       1  LIG1        0.0818
     39 H          -3.1084    0.4029    0.8325 H       1  LIG1        0.0869
     40 H          -3.7987    1.9312    0.2685 H       1  LIG1        0.0869
     41 H          -7.7583   -3.8812    0.5052 H       1  LIG1        0.1544
     42 H          -5.7885    0.9902   -0.1203 H       1  LIG1        0.2011
@<TRIPOS>BOND
     1     1     2   ar
     2     1     3   ar
     3     2     6   ar
     4     3     7   ar
     5     4     5   ar
     6     4     8   ar
     7     5     9   ar
     8     6    10   ar
     9     7    10   ar
    10     8    11   ar
    11     9    12   ar
    12    10    19    1
    13    11    12   ar
    14    11    20   ar
    15    12    21   ar
    16    13    15    1
    17    13    20   ar
    18    13    21   ar
    19    14    15    2
    20    14    16    1
    21    15    17    1
    22    16    22    1
    23    17    18    1
    24    18    22    1
    25    19    22    1
    26     1    23    1
    27     2    24    1
    28     3    25    1
    29     4    26    1
    30     5    27    1
    31     6    28    1
    32     7    29    1
    33     8    30    1
    34     9    31    1
    35    14    32    1
    36    16    33    1
    37    16    34    1
    38    17    35    1
    39    17    36    1
    40    18    37    1
    41    18    38    1
    42    19    39    1
    43    19    40    1
    44    21    41    1
    45    22    42    1
