@<TRIPOS>MOLECULE
ChEBML345569
 35 37 0 0 0
SMALL
USER_CHARGES

@<TRIPOS>ATOM
      1 C          -3.1447   -0.3284   -3.5489 C.ar    1  LIG1       -0.0603
      2 C          -2.7346    0.9999   -3.4351 C.ar    1  LIG1       -0.0606
      3 C         -10.5506   -5.0415    0.3772 C.ar    1  LIG1       -0.0387
      4 C          -3.5064   -1.0468   -2.4093 C.ar    1  LIG1       -0.0380
      5 C          -2.6861    1.6098   -2.1817 C.ar    1  LIG1       -0.0416
      6 C         -11.7953   -5.5007    0.8174 C.ar    1  LIG1       -0.0416
      7 C         -11.9378   -3.7167    2.4587 C.ar    1  LIG1       -0.0343
      8 C          -9.8567   -2.1446    2.4199 C.ar    1  LIG1       -0.0261
      9 C         -10.6843   -3.2353    2.0319 C.ar    1  LIG1       -0.0007
     10 C         -10.0209   -3.9075    1.0031 C.ar    1  LIG1        0.0379
     11 C          -3.4579   -0.4368   -1.1558 C.ar    1  LIG1        0.0744
     12 C         -12.4800   -4.8501    1.8419 C.ar    1  LIG1        0.0413
     13 C          -3.0478    0.8915   -1.0419 C.ar    1  LIG1        0.0631
     14 C          -8.7279   -2.1753    1.6339 C.ar    1  LIG1        0.0961
     15 C          -7.6096   -1.2862    1.6532 C.2     1  LIG1        0.2743
     16 N          -8.8362   -3.2419    0.7824 N.ar    1  LIG1       -0.3100
     17 N          -6.5674   -1.5283    0.7420 N.am    1  LIG1       -0.2197
     18 N          -5.4050   -0.6644    0.6984 N.3     1  LIG1       -0.2074
     19 O          -7.5528   -0.3149    2.4479 O.2     1  LIG1       -0.2687
     20 O          -2.9510   -1.1624    1.2980 O.2     1  LIG1       -0.4749
     21 O          -4.1895   -2.7435   -0.2174 O.2     1  LIG1       -0.4749
     22 S          -3.9300   -1.3965    0.2535 S.O2    1  LIG1       -0.1511
     23 CL        -14.0130   -5.4454    2.3558 Cl      1  LIG1       -0.0843
     24 CL         -2.9699    1.6932    0.4856 Cl      1  LIG1       -0.0823
     25 H          -3.1831   -0.8030   -4.5251 H       1  LIG1        0.0623
     26 H          -2.4535    1.5593   -4.3225 H       1  LIG1        0.0623
     27 H         -10.0182   -5.5494   -0.4201 H       1  LIG1        0.0643
     28 H          -3.8245   -2.0808   -2.5127 H       1  LIG1        0.0642
     29 H          -2.3643    2.6459   -2.1112 H       1  LIG1        0.0639
     30 H         -12.2223   -6.3815    0.3425 H       1  LIG1        0.0639
     31 H         -12.4705   -3.2085    3.2583 H       1  LIG1        0.0645
     32 H         -10.0686   -1.4171    3.1920 H       1  LIG1        0.0651
     33 H          -8.1479   -3.5057    0.0907 H       1  LIG1        0.1529
     34 H          -6.5725   -2.3067    0.0920 H       1  LIG1        0.1755
     35 H          -5.3963    0.1183    1.3639 H       1  LIG1        0.1892
@<TRIPOS>BOND
     1     1     2   ar
     2     1     4   ar
     3     2     5   ar
     4     3     6   ar
     5     3    10   ar
     6     4    11   ar
     7     5    13   ar
     8     6    12   ar
     9     7     9   ar
    10     7    12   ar
    11     8     9   ar
    12     8    14   ar
    13     9    10   ar
    14    10    16   ar
    15    11    13   ar
    16    11    22    1
    17    12    23    1
    18    13    24    1
    19    14    15    1
    20    14    16   ar
    21    15    17   am
    22    15    19    2
    23    17    18    1
    24    18    22    1
    25    20    22    2
    26    21    22    2
    27     1    25    1
    28     2    26    1
    29     3    27    1
    30     4    28    1
    31     5    29    1
    32     6    30    1
    33     7    31    1
    34     8    32    1
    35    16    33    1
    36    17    34    1
    37    18    35    1
