@<TRIPOS>MOLECULE
ChEBML471759
 46 49 0 0 0
SMALL
USER_CHARGES

@<TRIPOS>ATOM
      1 C          -2.0234    0.8799   -3.3265 C.ar    1  LIG1       -0.0431
      2 C          -1.8407   -0.4667   -3.0326 C.ar    1  LIG1       -0.0449
      3 C         -12.2779   -3.5326    2.1569 C.ar    1  LIG1       -0.0482
      4 C         -12.0263   -4.9702    0.2314 C.ar    1  LIG1       -0.0482
      5 C         -10.9191   -3.2223    2.1027 C.ar    1  LIG1       -0.0402
      6 C         -10.6675   -4.6598    0.1772 C.ar    1  LIG1       -0.0402
      7 C          -3.1105    1.5257   -2.7601 C.ar    1  LIG1        0.0291
      8 C          -7.7492   -0.5032    2.7639 C.ar    1  LIG1        0.1175
      9 C          -6.8548   -2.0106    0.7347 C.ar    1  LIG1        0.0173
     10 C         -12.8315   -4.4067    1.2212 C.ar    1  LIG1        0.0556
     11 C          -2.7382   -1.1173   -2.1931 C.ar    1  LIG1        0.0957
     12 C         -10.1139   -3.7859    1.1129 C.ar    1  LIG1        0.0314
     13 C          -6.1688   -0.8836    1.1602 C.ar    1  LIG1        0.0663
     14 C          -3.7933   -0.3820   -1.6773 C.ar    1  LIG1        0.1325
     15 C          -8.0140   -2.3170    1.4231 C.ar    1  LIG1        0.1286
     16 C          -6.3089   -2.8332   -0.3810 C.3     1  LIG1       -0.0067
     17 C          -4.8478   -0.5239    0.5270 C.3     1  LIG1        0.0557
     18 C          -5.6741   -1.9263   -1.4352 C.3     1  LIG1        0.0175
     19 C         -14.2841   -4.7394    1.2785 C.3     1  LIG1        0.4160
     20 C          -2.5387   -2.5613   -1.8803 C.3     1  LIG1        0.4193
     21 N          -4.0034    0.9273   -1.9401 N.ar    1  LIG1       -0.2408
     22 N          -6.5995   -0.1100    2.1825 N.ar    1  LIG1       -0.2392
     23 N          -8.4934   -1.5774    2.4431 N.ar    1  LIG1       -0.2211
     24 N          -4.6798   -1.0193   -0.8484 N.pl3   1  LIG1       -0.3090
     25 N          -8.7456   -3.4720    1.0569 N.pl3   1  LIG1       -0.2993
     26 F         -14.9486   -4.1173    2.2971 F       1  LIG1       -0.1661
     27 F         -14.9684   -4.3983    0.1467 F       1  LIG1       -0.1661
     28 F         -14.5107   -6.0739    1.4552 F       1  LIG1       -0.1661
     29 F          -1.4417   -3.1065   -2.4852 F       1  LIG1       -0.1660
     30 F          -2.3730   -2.8149   -0.5483 F       1  LIG1       -0.1660
     31 F          -3.5936   -3.3344   -2.2713 F       1  LIG1       -0.1660
     32 H          -1.3361    1.4074   -3.9779 H       1  LIG1        0.0639
     33 H          -0.9969   -0.9997   -3.4622 H       1  LIG1        0.0631
     34 H         -12.8976   -3.0900    2.9320 H       1  LIG1        0.0629
     35 H         -12.4485   -5.6533   -0.5006 H       1  LIG1        0.0629
     36 H         -10.4976   -2.5413    2.8375 H       1  LIG1        0.0642
     37 H         -10.0493   -5.1053   -0.5979 H       1  LIG1        0.0642
     38 H          -3.2984    2.5760   -2.9582 H       1  LIG1        0.0840
     39 H          -8.1116    0.1096    3.5802 H       1  LIG1        0.1063
     40 H          -5.5613   -3.5266    0.0236 H       1  LIG1        0.0334
     41 H          -7.0859   -3.4305   -0.8699 H       1  LIG1        0.0334
     42 H          -4.7556    0.5701    0.5355 H       1  LIG1        0.0536
     43 H          -4.0421   -0.9302    1.1501 H       1  LIG1        0.0536
     44 H          -5.2033   -2.5537   -2.2023 H       1  LIG1        0.0472
     45 H          -6.4494   -1.3282   -1.9321 H       1  LIG1        0.0472
     46 H          -8.1648   -4.2133    0.6814 H       1  LIG1        0.1543
@<TRIPOS>BOND
     1     1     2   ar
     2     1     7   ar
     3     2    11   ar
     4     3     5   ar
     5     3    10   ar
     6     4     6   ar
     7     4    10   ar
     8     5    12   ar
     9     6    12   ar
    10     7    21   ar
    11     8    22   ar
    12     8    23   ar
    13     9    13   ar
    14     9    15   ar
    15     9    16    1
    16    10    19    1
    17    11    14   ar
    18    11    20    1
    19    12    25    1
    20    13    17    1
    21    13    22   ar
    22    14    21   ar
    23    14    24    1
    24    15    23   ar
    25    15    25    1
    26    16    18    1
    27    17    24    1
    28    18    24    1
    29    19    26    1
    30    19    27    1
    31    19    28    1
    32    20    29    1
    33    20    30    1
    34    20    31    1
    35     1    32    1
    36     2    33    1
    37     3    34    1
    38     4    35    1
    39     5    36    1
    40     6    37    1
    41     7    38    1
    42     8    39    1
    43    16    40    1
    44    16    41    1
    45    17    42    1
    46    17    43    1
    47    18    44    1
    48    18    45    1
    49    25    46    1
