@<TRIPOS>MOLECULE
ChEBML248870
 57 60 0 0 0
SMALL
USER_CHARGES

@<TRIPOS>ATOM
      1 C         -12.6325   -4.2027    0.8573 C.ar    1  LIG1       -0.0615
      2 C         -11.8211   -4.6657   -0.1767 C.ar    1  LIG1       -0.0603
      3 C          -2.0192    1.4513   -3.0865 C.ar    1  LIG1       -0.0411
      4 C         -12.0737   -3.6150    1.9980 C.ar    1  LIG1       -0.0530
      5 C         -10.4294   -4.5571   -0.1046 C.ar    1  LIG1       -0.0402
      6 C          -1.5175    0.1879   -2.7938 C.ar    1  LIG1       -0.0266
      7 C          -9.7875   -2.9677    3.0746 C.ar    1  LIG1       -0.0262
      8 C          -3.3101    1.7467   -2.6791 C.ar    1  LIG1        0.0293
      9 C         -10.6729   -3.4946    2.0931 C.ar    1  LIG1       -0.0022
     10 C          -9.8847   -3.9675    1.0417 C.ar    1  LIG1        0.0378
     11 C          -2.3109   -0.7284   -2.1124 C.ar    1  LIG1        0.1156
     12 C          -8.5029   -3.1280    2.6088 C.ar    1  LIG1        0.0947
     13 C          -3.5887   -0.3352   -1.7484 C.ar    1  LIG1        0.1505
     14 C          -7.2730   -2.7539    3.2437 C.2     1  LIG1        0.2598
     15 C          -4.3662   -1.9900    1.2788 C.3     1  LIG1       -0.0185
     16 C          -6.4313   -0.9538    0.2464 C.3     1  LIG1       -0.0185
     17 C          -5.0095   -1.8158    2.6539 C.3     1  LIG1        0.0162
     18 C          -7.0313   -0.8250    1.6474 C.3     1  LIG1        0.0162
     19 C          -4.8971   -0.9712    0.2624 C.3     1  LIG1        0.0268
     20 C          -1.3522   -3.5403   -0.0728 C.3     1  LIG1       -0.0384
     21 C           0.3347   -1.8054   -0.7773 C.3     1  LIG1       -0.0384
     22 C          -4.7165   -2.5448   -1.6714 C.3     1  LIG1        0.0018
     23 C          -1.1401   -2.1229   -0.5826 C.3     1  LIG1        0.0588
     24 N          -4.1107    0.8830   -2.0152 N.ar    1  LIG1       -0.2386
     25 N          -8.5717   -3.7317    1.3820 N.ar    1  LIG1       -0.3101
     26 N          -6.4745   -1.8382    2.5453 N.am    1  LIG1       -0.2966
     27 N          -4.3877   -1.2572   -1.0637 N.pl3   1  LIG1       -0.3136
     28 O          -6.9667   -3.2264    4.3371 O.2     1  LIG1       -0.2702
     29 O          -1.8236   -1.9636   -1.8263 O.3     1  LIG1       -0.3398
     30 H         -13.7123   -4.2976    0.7779 H       1  LIG1        0.0623
     31 H         -12.2764   -5.1191   -1.0532 H       1  LIG1        0.0623
     32 H          -1.4201    2.1828   -3.6164 H       1  LIG1        0.0640
     33 H         -12.7179   -3.2578    2.7966 H       1  LIG1        0.0629
     34 H          -9.7978   -4.9180   -0.9095 H       1  LIG1        0.0642
     35 H          -0.5086   -0.0756   -3.0986 H       1  LIG1        0.0652
     36 H         -10.0654   -2.5197    4.0194 H       1  LIG1        0.0651
     37 H          -3.7481    2.7185   -2.8827 H       1  LIG1        0.0840
     38 H          -3.2766   -1.9091    1.3705 H       1  LIG1        0.0302
     39 H          -4.5865   -3.0004    0.9111 H       1  LIG1        0.0302
     40 H          -6.7842   -1.8930   -0.1992 H       1  LIG1        0.0302
     41 H          -6.8014   -0.1388   -0.3869 H       1  LIG1        0.0302
     42 H          -4.6437   -2.5995    3.3223 H       1  LIG1        0.0470
     43 H          -4.7289   -0.8572    3.1048 H       1  LIG1        0.0470
     44 H          -6.8062    0.1569    2.0793 H       1  LIG1        0.0470
     45 H          -8.1209   -0.9124    1.5898 H       1  LIG1        0.0470
     46 H          -4.5369    0.0248    0.5445 H       1  LIG1        0.0506
     47 H          -0.9257   -4.2774   -0.7599 H       1  LIG1        0.0257
     48 H          -0.8846   -3.6657    0.9096 H       1  LIG1        0.0257
     49 H          -2.4182   -3.7575    0.0568 H       1  LIG1        0.0257
     50 H           0.8014   -2.5012   -1.4812 H       1  LIG1        0.0257
     51 H           0.8667   -1.8647    0.1783 H       1  LIG1        0.0257
     52 H           0.4720   -0.7846   -1.1508 H       1  LIG1        0.0257
     53 H          -5.3451   -3.1298   -0.9952 H       1  LIG1        0.0432
     54 H          -3.8032   -3.1089   -1.8792 H       1  LIG1        0.0432
     55 H          -5.2558   -2.3929   -2.6103 H       1  LIG1        0.0432
     56 H          -1.5769   -1.4109    0.1251 H       1  LIG1        0.0603
     57 H          -7.7759   -3.9720    0.8068 H       1  LIG1        0.1529
@<TRIPOS>BOND
     1     1     2   ar
     2     1     4   ar
     3     2     5   ar
     4     3     6   ar
     5     3     8   ar
     6     4     9   ar
     7     5    10   ar
     8     6    11   ar
     9     7     9   ar
    10     7    12   ar
    11     8    24   ar
    12     9    10   ar
    13    10    25   ar
    14    11    13   ar
    15    11    29    1
    16    12    14    1
    17    12    25   ar
    18    13    24   ar
    19    13    27    1
    20    14    26   am
    21    14    28    2
    22    15    17    1
    23    15    19    1
    24    16    18    1
    25    16    19    1
    26    17    26    1
    27    18    26    1
    28    19    27    1
    29    20    23    1
    30    21    23    1
    31    22    27    1
    32    23    29    1
    33     1    30    1
    34     2    31    1
    35     3    32    1
    36     4    33    1
    37     5    34    1
    38     6    35    1
    39     7    36    1
    40     8    37    1
    41    15    38    1
    42    15    39    1
    43    16    40    1
    44    16    41    1
    45    17    42    1
    46    17    43    1
    47    18    44    1
    48    18    45    1
    49    19    46    1
    50    20    47    1
    51    20    48    1
    52    20    49    1
    53    21    50    1
    54    21    51    1
    55    21    52    1
    56    22    53    1
    57    22    54    1
    58    22    55    1
    59    23    56    1
    60    25    57    1
