@<TRIPOS>MOLECULE
ChEBML406356
 44 46 0 0 0
SMALL
USER_CHARGES

@<TRIPOS>ATOM
      1 C          -2.6384    1.5854   -2.7572 C.ar    1  LIG1       -0.0598
      2 C          -9.7536   -1.6240    1.4927 C.ar    1  LIG1       -0.0494
      3 C          -8.1267   -3.4057    1.4119 C.ar    1  LIG1       -0.0494
      4 C          -2.1638    0.7739   -3.7717 C.ar    1  LIG1       -0.0499
      5 C         -10.7524   -2.5328    1.2104 C.ar    1  LIG1       -0.0585
      6 C          -9.1357   -4.3050    1.1356 C.ar    1  LIG1       -0.0585
      7 C          -3.2370    1.0256   -1.6460 C.ar    1  LIG1       -0.0409
      8 C          -2.8791   -1.1669   -2.5653 C.ar    1  LIG1       -0.0287
      9 C          -8.4302   -2.0557    1.5955 C.ar    1  LIG1        0.0372
     10 C         -10.4447   -3.8696    1.0294 C.ar    1  LIG1       -0.0511
     11 C          -2.2868   -0.6000   -3.6769 C.ar    1  LIG1        0.0573
     12 C          -3.3619   -0.3546   -1.5474 C.ar    1  LIG1        0.0292
     13 C          -7.3548   -1.0873    1.8973 C.2     1  LIG1        0.2456
     14 C          -4.3613    0.1855    0.4504 C.3     1  LIG1        0.0274
     15 C          -5.1964   -1.5738   -0.8918 C.3     1  LIG1        0.0274
     16 C          -5.0132   -0.3694    1.7210 C.3     1  LIG1        0.0302
     17 C          -5.9019   -2.2490    0.2946 C.3     1  LIG1        0.0302
     18 C         -11.5410   -4.8568    0.7214 C.3     1  LIG1       -0.0398
     19 C          -1.7690   -1.4802   -4.7853 C.3     1  LIG1        0.4160
     20 N          -3.9664   -0.9244   -0.4245 N.pl3   1  LIG1       -0.3276
     21 N          -6.1417   -1.2279    1.3270 N.am    1  LIG1       -0.2947
     22 O          -7.5645   -0.1642    2.6598 O.2     1  LIG1       -0.2716
     23 F          -1.2121   -0.6838   -5.7916 F       1  LIG1       -0.1661
     24 F          -0.7910   -2.3422   -4.2778 F       1  LIG1       -0.1661
     25 F          -2.8234   -2.2317   -5.3151 F       1  LIG1       -0.1661
     26 H          -2.5410    2.6583   -2.8345 H       1  LIG1        0.0623
     27 H          -9.9951   -0.5808    1.6333 H       1  LIG1        0.0631
     28 H          -7.1047   -3.7460    1.4901 H       1  LIG1        0.0631
     29 H          -1.6963    1.2144   -4.6399 H       1  LIG1        0.0629
     30 H         -11.7767   -2.2001    1.1302 H       1  LIG1        0.0625
     31 H          -8.9028   -5.3505    0.9977 H       1  LIG1        0.0625
     32 H          -3.6081    1.6598   -0.8545 H       1  LIG1        0.0642
     33 H          -2.9705   -2.2404   -2.4898 H       1  LIG1        0.0648
     34 H          -5.0722    0.8250   -0.0727 H       1  LIG1        0.0485
     35 H          -3.4796    0.7673    0.7191 H       1  LIG1        0.0485
     36 H          -5.8563   -0.8269   -1.3330 H       1  LIG1        0.0485
     37 H          -4.9478   -2.3259   -1.6406 H       1  LIG1        0.0485
     38 H          -5.3756    0.4535    2.3371 H       1  LIG1        0.0486
     39 H          -4.2846   -0.9551    2.2816 H       1  LIG1        0.0486
     40 H          -5.2702   -3.0394    0.6999 H       1  LIG1        0.0486
     41 H          -6.8523   -2.6699   -0.0332 H       1  LIG1        0.0486
     42 H         -11.9410   -5.2577    1.6526 H       1  LIG1        0.0280
     43 H         -12.3366   -4.3557    0.1700 H       1  LIG1        0.0280
     44 H         -11.1382   -5.6707    0.1187 H       1  LIG1        0.0280
@<TRIPOS>BOND
     1     1     4   ar
     2     1     7   ar
     3     2     5   ar
     4     2     9   ar
     5     3     6   ar
     6     3     9   ar
     7     4    11   ar
     8     5    10   ar
     9     6    10   ar
    10     7    12   ar
    11     8    11   ar
    12     8    12   ar
    13     9    13    1
    14    10    18    1
    15    11    19    1
    16    12    20    1
    17    13    21   am
    18    13    22    2
    19    14    16    1
    20    14    20    1
    21    15    17    1
    22    15    20    1
    23    16    21    1
    24    17    21    1
    25    19    23    1
    26    19    24    1
    27    19    25    1
    28     1    26    1
    29     2    27    1
    30     3    28    1
    31     4    29    1
    32     5    30    1
    33     6    31    1
    34     7    32    1
    35     8    33    1
    36    14    34    1
    37    14    35    1
    38    15    36    1
    39    15    37    1
    40    16    38    1
    41    16    39    1
    42    17    40    1
    43    17    41    1
    44    18    42    1
    45    18    43    1
    46    18    44    1
