@<TRIPOS>MOLECULE
ChEBML1137610
 49 52 0 0 0
SMALL
USER_CHARGES

@<TRIPOS>ATOM
      1 C          -3.5727    1.2882   -3.1802 C.ar    1  LIG1       -0.0602
      2 C          -2.3163    0.8740   -3.5816 C.ar    1  LIG1       -0.0595
      3 C         -13.0416   -2.3457    1.7170 C.ar    1  LIG1       -0.0513
      4 C         -12.6515   -4.4862    0.6795 C.ar    1  LIG1       -0.0513
      5 C          -4.1987    0.6727   -2.1125 C.ar    1  LIG1       -0.0382
      6 C          -1.6791   -0.1579   -2.9172 C.ar    1  LIG1       -0.0299
      7 C         -14.4003   -2.5855    1.6893 C.ar    1  LIG1       -0.0428
      8 C         -14.0116   -4.7197    0.6619 C.ar    1  LIG1       -0.0428
      9 C         -10.0602   -1.8963    1.7476 C.ar    1  LIG1       -0.0059
     10 C         -12.1580   -3.2980    1.2138 C.ar    1  LIG1        0.0019
     11 C          -3.5679   -0.3667   -1.4445 C.ar    1  LIG1        0.0594
     12 C          -2.2993   -0.7796   -1.8461 C.ar    1  LIG1        0.0957
     13 C         -14.8856   -3.7702    1.1627 C.ar    1  LIG1        0.0406
     14 C         -10.6954   -3.0448    1.2413 C.ar    1  LIG1        0.0905
     15 C          -8.7088   -2.1138    1.5586 C.ar    1  LIG1        0.1123
     16 C          -7.6105   -1.2035    1.9218 C.2     1  LIG1        0.2614
     17 C          -4.5629    0.0613    0.5850 C.3     1  LIG1        0.0275
     18 C          -5.4512   -1.5640   -0.8858 C.3     1  LIG1        0.0275
     19 C          -5.2435   -0.5604    1.8087 C.3     1  LIG1        0.0303
     20 C          -6.1905   -2.2930    0.2408 C.3     1  LIG1        0.0303
     21 C          -0.4086   -1.9798   -1.8296 C.3     1  LIG1        0.0423
     22 N          -9.7576   -3.8544    0.7966 N.ar    1  LIG1       -0.1834
     23 N          -8.5935   -3.3381    0.9626 N.ar    1  LIG1       -0.2326
     24 N          -4.2020   -0.9955   -0.3668 N.pl3   1  LIG1       -0.3255
     25 N          -6.3994   -1.3462    1.3479 N.am    1  LIG1       -0.2935
     26 O          -7.7959   -0.3227    2.7397 O.2     1  LIG1       -0.2701
     27 O          -1.6736   -1.7945   -1.1913 O.3     1  LIG1       -0.3473
     28 CL        -16.5959   -4.0664    1.1306 Cl      1  LIG1       -0.0843
     29 H          -4.0663    2.0948   -3.7019 H       1  LIG1        0.0623
     30 H          -1.8307    1.3580   -4.4162 H       1  LIG1        0.0623
     31 H         -12.6639   -1.4213    2.1284 H       1  LIG1        0.0630
     32 H         -11.9706   -5.2253    0.2839 H       1  LIG1        0.0630
     33 H          -5.1800    0.9984   -1.8008 H       1  LIG1        0.0643
     34 H          -0.6977   -0.4790   -3.2333 H       1  LIG1        0.0651
     35 H         -15.0861   -1.8481    2.0795 H       1  LIG1        0.0638
     36 H         -14.3948   -5.6428    0.2527 H       1  LIG1        0.0638
     37 H         -10.5288   -1.0295    2.1900 H       1  LIG1        0.0668
     38 H          -3.6627    0.5895    0.8995 H       1  LIG1        0.0485
     39 H          -5.2464    0.7628    0.1067 H       1  LIG1        0.0485
     40 H          -6.0805   -0.7633   -1.2744 H       1  LIG1        0.0485
     41 H          -5.2245   -2.2681   -1.6864 H       1  LIG1        0.0485
     42 H          -4.5407   -1.2116    2.3284 H       1  LIG1        0.0486
     43 H          -5.5804    0.2282    2.4815 H       1  LIG1        0.0486
     44 H          -5.5925   -3.1362    0.5868 H       1  LIG1        0.0486
     45 H          -7.1537   -2.6504   -0.1234 H       1  LIG1        0.0486
     46 H           0.1322   -2.7877   -1.3366 H       1  LIG1        0.0535
     47 H          -0.5644   -2.2338   -2.8781 H       1  LIG1        0.0535
     48 H           0.1713   -1.0595   -1.7610 H       1  LIG1        0.0535
     49 H          -7.7567   -3.7561    0.7053 H       1  LIG1        0.1757
@<TRIPOS>BOND
     1     1     2   ar
     2     1     5   ar
     3     2     6   ar
     4     3     7   ar
     5     3    10   ar
     6     4     8   ar
     7     4    10   ar
     8     5    11   ar
     9     6    12   ar
    10     7    13   ar
    11     8    13   ar
    12     9    14   ar
    13     9    15   ar
    14    10    14    1
    15    11    12   ar
    16    11    24    1
    17    12    27    1
    18    13    28    1
    19    14    22   ar
    20    15    16    1
    21    15    23   ar
    22    16    25   am
    23    16    26    2
    24    17    19    1
    25    17    24    1
    26    18    20    1
    27    18    24    1
    28    19    25    1
    29    20    25    1
    30    21    27    1
    31    22    23   ar
    32     1    29    1
    33     2    30    1
    34     3    31    1
    35     4    32    1
    36     5    33    1
    37     6    34    1
    38     7    35    1
    39     8    36    1
    40     9    37    1
    41    17    38    1
    42    17    39    1
    43    18    40    1
    44    18    41    1
    45    19    42    1
    46    19    43    1
    47    20    44    1
    48    20    45    1
    49    21    46    1
    50    21    47    1
    51    21    48    1
    52    23    49    1
