@<TRIPOS>MOLECULE
ChEBML311221
 44 46 0 0 0
SMALL
USER_CHARGES

@<TRIPOS>ATOM
      1 C         -12.3616   -3.6970    1.8384 C.ar    1  LIG1       -0.0482
      2 C         -11.6478   -5.7759    0.8356 C.ar    1  LIG1       -0.0482
      3 C         -11.0634   -3.1985    1.7293 C.ar    1  LIG1       -0.0401
      4 C         -10.3496   -5.2774    0.7264 C.ar    1  LIG1       -0.0401
      5 C          -2.8809   -1.1578   -2.2020 C.ar    1  LIG1       -0.0153
      6 C          -2.0111    0.7905   -3.2296 C.ar    1  LIG1        0.0527
      7 C         -12.6538   -4.9856    1.3916 C.ar    1  LIG1        0.0556
      8 C          -1.9082   -0.5646   -2.9874 C.ar    1  LIG1       -0.0274
      9 C         -10.0575   -3.9888    1.1733 C.ar    1  LIG1        0.0340
     10 C          -3.8919   -0.3566   -1.7105 C.ar    1  LIG1        0.1432
     11 C          -8.5212   -2.1210    0.9695 C.2     1  LIG1        0.3050
     12 C          -5.5110   -0.1467    0.1077 C.3     1  LIG1        0.0289
     13 C          -5.5699   -2.1062   -1.4651 C.3     1  LIG1        0.0289
     14 C          -7.0230   -0.3590    0.0800 C.3     1  LIG1        0.0315
     15 C          -6.4642   -2.7338   -0.3950 C.3     1  LIG1        0.0315
     16 C          -0.7873   -1.3619   -3.5530 C.3     1  LIG1       -0.0381
     17 C         -14.0419   -5.5185    1.5084 C.3     1  LIG1        0.4160
     18 N          -3.0115    1.5501   -2.7356 N.ar    1  LIG1       -0.1569
     19 N          -3.9673    0.9672   -1.9634 N.ar    1  LIG1       -0.1352
     20 N          -4.8555   -0.9443   -0.9323 N.pl3   1  LIG1       -0.3112
     21 N          -7.3723   -1.7695    0.2360 N.am    1  LIG1       -0.2824
     22 N          -8.7548   -3.4888    1.0634 N.am    1  LIG1       -0.2691
     23 O          -9.2600   -1.2824    1.4958 O.2     1  LIG1       -0.2537
     24 F         -14.9211   -4.6371    2.0706 F       1  LIG1       -0.1661
     25 F         -14.5989   -5.8607    0.3090 F       1  LIG1       -0.1661
     26 F         -14.1094   -6.6438    2.2777 F       1  LIG1       -0.1661
     27 H         -13.1388   -3.0750    2.2749 H       1  LIG1        0.0629
     28 H         -11.8664   -6.7813    0.4856 H       1  LIG1        0.0629
     29 H         -10.8472   -2.1927    2.0804 H       1  LIG1        0.0642
     30 H          -9.5730   -5.9022    0.2925 H       1  LIG1        0.0642
     31 H          -2.8450   -2.2206   -1.9824 H       1  LIG1        0.0663
     32 H          -1.2850    1.3205   -3.8361 H       1  LIG1        0.0862
     33 H          -5.2981    0.9216   -0.0223 H       1  LIG1        0.0485
     34 H          -5.1066   -0.4455    1.0822 H       1  LIG1        0.0485
     35 H          -4.8563   -2.8577   -1.8235 H       1  LIG1        0.0485
     36 H          -6.1822   -1.7940   -2.3209 H       1  LIG1        0.0485
     37 H          -7.4970    0.2368    0.8671 H       1  LIG1        0.0486
     38 H          -7.4424   -0.0293   -0.8784 H       1  LIG1        0.0486
     39 H          -7.0477   -3.5440   -0.8447 H       1  LIG1        0.0486
     40 H          -5.8517   -3.1632    0.4070 H       1  LIG1        0.0486
     41 H          -1.0571   -1.7613   -4.5399 H       1  LIG1        0.0280
     42 H           0.1225   -0.7549   -3.6641 H       1  LIG1        0.0280
     43 H          -0.5239   -2.2060   -2.8998 H       1  LIG1        0.0280
     44 H          -7.9995   -4.1627    1.1122 H       1  LIG1        0.1573
@<TRIPOS>BOND
     1     1     3   ar
     2     1     7   ar
     3     2     4   ar
     4     2     7   ar
     5     3     9   ar
     6     4     9   ar
     7     5     8   ar
     8     5    10   ar
     9     6     8   ar
    10     6    18   ar
    11     7    17    1
    12     8    16    1
    13     9    22    1
    14    10    19   ar
    15    10    20    1
    16    11    21   am
    17    11    22   am
    18    11    23    2
    19    12    14    1
    20    12    20    1
    21    13    15    1
    22    13    20    1
    23    14    21    1
    24    15    21    1
    25    17    24    1
    26    17    25    1
    27    17    26    1
    28    18    19   ar
    29     1    27    1
    30     2    28    1
    31     3    29    1
    32     4    30    1
    33     5    31    1
    34     6    32    1
    35    12    33    1
    36    12    34    1
    37    13    35    1
    38    13    36    1
    39    14    37    1
    40    14    38    1
    41    15    39    1
    42    15    40    1
    43    16    41    1
    44    16    42    1
    45    16    43    1
    46    22    44    1
