@<TRIPOS>MOLECULE
ChEBML1311465
 38 40 0 0 0
SMALL
USER_CHARGES

@<TRIPOS>ATOM
      1 C         -11.9017   -5.3229    0.7804 C.ar    1  LIG1       -0.0616
      2 C         -12.5704   -4.5059    1.6870 C.ar    1  LIG1       -0.0616
      3 C          -1.9116    1.3282   -2.9715 C.ar    1  LIG1       -0.0585
      4 C          -0.9422    0.3560   -2.7513 C.ar    1  LIG1       -0.0438
      5 C         -10.5873   -5.0312    0.4148 C.ar    1  LIG1       -0.0543
      6 C         -11.9273   -3.3941    2.2316 C.ar    1  LIG1       -0.0543
      7 C          -3.2245    1.0946   -2.5777 C.ar    1  LIG1       -0.0345
      8 C          -8.6016   -3.6076    0.5964 C.ar    1  LIG1       -0.0391
      9 C          -9.9416   -1.9703    2.4131 C.ar    1  LIG1       -0.0234
     10 C          -1.3338   -0.8233   -2.1385 C.ar    1  LIG1        0.0276
     11 C          -9.9244   -3.9162    0.9529 C.ar    1  LIG1       -0.0174
     12 C         -10.6045   -3.0853    1.8749 C.ar    1  LIG1       -0.0157
     13 C          -7.9585   -2.4958    1.1408 C.ar    1  LIG1        0.0694
     14 C          -8.6272   -1.6787    2.0476 C.ar    1  LIG1        0.0845
     15 C          -3.5140   -0.1179   -1.9728 C.ar    1  LIG1        0.0857
     16 C          -6.5862   -2.2078    0.7471 C.2     1  LIG1        0.2651
     17 C          -4.9028   -0.4236   -1.5306 C.2     1  LIG1        0.0811
     18 C          -5.9913   -0.4328   -2.5862 C.3     1  LIG1       -0.0184
     19 N          -2.5992   -1.0863   -1.7421 N.ar    1  LIG1       -0.2549
     20 N          -5.0986   -0.6643   -0.2678 N.2     1  LIG1       -0.1842
     21 N          -6.3512   -0.9762    0.1340 N.am    1  LIG1       -0.2028
     22 O          -5.6844   -3.0411    0.9426 O.2     1  LIG1       -0.2699
     23 O          -8.0152   -0.5878    2.5895 O.3     1  LIG1       -0.3600
     24 H         -12.4029   -6.1887    0.3571 H       1  LIG1        0.0623
     25 H         -13.5940   -4.7335    1.9707 H       1  LIG1        0.0623
     26 H          -1.6444    2.2661   -3.4491 H       1  LIG1        0.0624
     27 H           0.0873    0.5159   -3.0502 H       1  LIG1        0.0639
     28 H         -10.0837   -5.6841   -0.2952 H       1  LIG1        0.0629
     29 H         -12.4695   -2.7696    2.9386 H       1  LIG1        0.0629
     30 H          -3.9893    1.8460   -2.7430 H       1  LIG1        0.0646
     31 H          -8.0691   -4.2401   -0.1124 H       1  LIG1        0.0638
     32 H         -10.4511   -1.3213    3.1236 H       1  LIG1        0.0657
     33 H          -0.6153   -1.6125   -1.9427 H       1  LIG1        0.0840
     34 H          -6.1220   -1.4206   -3.0349 H       1  LIG1        0.0297
     35 H          -6.9375   -0.1186   -2.1365 H       1  LIG1        0.0297
     36 H          -5.7257    0.2512   -3.3981 H       1  LIG1        0.0297
     37 H          -7.0988   -0.3202   -0.0563 H       1  LIG1        0.1789
     38 H          -7.1110   -0.5077    2.2482 H       1  LIG1        0.2182
@<TRIPOS>BOND
     1     1     2   ar
     2     1     5   ar
     3     2     6   ar
     4     3     4   ar
     5     3     7   ar
     6     4    10   ar
     7     5    11   ar
     8     6    12   ar
     9     7    15   ar
    10     8    11   ar
    11     8    13   ar
    12     9    12   ar
    13     9    14   ar
    14    10    19   ar
    15    11    12   ar
    16    13    14   ar
    17    13    16    1
    18    14    23    1
    19    15    17    1
    20    15    19   ar
    21    16    21   am
    22    16    22    2
    23    17    18    1
    24    17    20    2
    25    20    21    1
    26     1    24    1
    27     2    25    1
    28     3    26    1
    29     4    27    1
    30     5    28    1
    31     6    29    1
    32     7    30    1
    33     8    31    1
    34     9    32    1
    35    10    33    1
    36    18    34    1
    37    18    35    1
    38    18    36    1
    39    21    37    1
    40    23    38    1
