@<TRIPOS>MOLECULE
ChEBML800778
 38 41 0 0 0
SMALL
USER_CHARGES

@<TRIPOS>ATOM
      1 C          -2.4137   -0.1611   -3.3525 C.ar    1  LIG1       -0.0547
      2 C         -12.4805   -3.5837    1.9975 C.ar    1  LIG1       -0.0502
      3 C         -13.1420   -4.6577    1.4102 C.ar    1  LIG1       -0.0311
      4 C          -2.3383   -0.8621   -2.1143 C.ar    1  LIG1       -0.0502
      5 C         -10.4832   -2.2011    2.2346 C.ar    1  LIG1       -0.0411
      6 C          -8.1557   -1.0084    2.1671 C.ar    1  LIG1       -0.0141
      7 C         -11.1628   -5.1374    0.1176 C.ar    1  LIG1       -0.0053
      8 C          -3.3823    0.8182   -3.3347 C.ar    1  LIG1       -0.0244
      9 C         -11.1544   -3.2833    1.6446 C.ar    1  LIG1        0.0012
     10 C          -9.1627   -1.9510    1.8434 C.ar    1  LIG1        0.0281
     11 C         -10.4740   -4.0708    0.6859 C.ar    1  LIG1        0.0759
     12 C         -12.4818   -5.4357    0.4691 C.ar    1  LIG1        0.0768
     13 C          -7.0624   -1.3379    1.4003 C.ar    1  LIG1        0.1471
     14 C          -3.2522   -0.3916   -1.1970 C.ar    1  LIG1        0.0064
     15 C          -8.6105   -2.7993    0.8924 C.ar    1  LIG1        0.1801
     16 C          -5.7704   -0.7491    1.3025 C.2     1  LIG1        0.2671
     17 C         -14.4637   -6.7381    0.2919 C.3     1  LIG1        0.0422
     18 C          -3.4878   -0.8580    0.2105 C.3     1  LIG1        0.0429
     19 N          -9.2094   -3.8453    0.2993 N.ar    1  LIG1       -0.2232
     20 N          -4.8413   -1.3257    0.4058 N.am    1  LIG1       -0.3049
     21 O          -5.4408    0.2452    2.0026 O.2     1  LIG1       -0.2695
     22 O          -7.3272   -2.4208    0.6247 O.2     1  LIG1       -0.2854
     23 O         -13.1183   -6.4892   -0.1121 O.3     1  LIG1       -0.3492
     24 S          -4.1958    0.8897   -1.8295 S.2     1  LIG1       -0.1008
     25 H          -1.7891   -0.3636   -4.2127 H       1  LIG1        0.0628
     26 H         -13.0078   -2.9807    2.7338 H       1  LIG1        0.0630
     27 H         -14.1674   -4.8805    1.6909 H       1  LIG1        0.0650
     28 H          -1.6457   -1.6691   -1.9112 H       1  LIG1        0.0632
     29 H         -10.9676   -1.5707    2.9751 H       1  LIG1        0.0637
     30 H          -8.2208   -0.1920    2.8728 H       1  LIG1        0.0660
     31 H         -10.6649   -5.7620   -0.6233 H       1  LIG1        0.0673
     32 H          -3.6514    1.4947   -4.1334 H       1  LIG1        0.0700
     33 H         -14.8525   -7.6052   -0.2477 H       1  LIG1        0.0535
     34 H         -15.0773   -5.8588    0.0804 H       1  LIG1        0.0535
     35 H         -14.4807   -6.9420    1.3652 H       1  LIG1        0.0535
     36 H          -2.8076   -1.6783    0.4643 H       1  LIG1        0.0523
     37 H          -3.3058   -0.0507    0.9276 H       1  LIG1        0.0523
     38 H          -5.1171   -2.1635   -0.0961 H       1  LIG1        0.1501
@<TRIPOS>BOND
     1     1     4   ar
     2     1     8   ar
     3     2     3   ar
     4     2     9   ar
     5     3    12   ar
     6     4    14   ar
     7     5     9   ar
     8     5    10   ar
     9     6    10   ar
    10     6    13   ar
    11     7    11   ar
    12     7    12   ar
    13     8    24   ar
    14     9    11   ar
    15    10    15   ar
    16    11    19   ar
    17    12    23    1
    18    13    16    1
    19    13    22   ar
    20    14    18    1
    21    14    24   ar
    22    15    19   ar
    23    15    22   ar
    24    16    20   am
    25    16    21    2
    26    17    23    1
    27    18    20    1
    28     1    25    1
    29     2    26    1
    30     3    27    1
    31     4    28    1
    32     5    29    1
    33     6    30    1
    34     7    31    1
    35     8    32    1
    36    17    33    1
    37    17    34    1
    38    17    35    1
    39    18    36    1
    40    18    37    1
    41    20    38    1
