@<TRIPOS>MOLECULE
ChEBML2356
 41 44 0 0 0
SMALL
USER_CHARGES

@<TRIPOS>ATOM
      1 C          -3.3110   -0.9605   -2.5606 C.ar    1  LIG1       -0.0615
      2 C          -2.4880   -0.6766   -1.4725 C.ar    1  LIG1       -0.0603
      3 C          -4.6755   -1.2142   -2.3797 C.ar    1  LIG1       -0.0530
      4 C          -3.0001   -0.6369   -0.1724 C.ar    1  LIG1       -0.0402
      5 C         -10.3097   -5.1654    0.4564 C.ar    1  LIG1       -0.0376
      6 C         -11.6459   -5.5267    0.6517 C.ar    1  LIG1       -0.0292
      7 C         -12.0608   -3.5157    1.9480 C.ar    1  LIG1       -0.0219
      8 C          -6.5154   -1.3817   -0.5383 C.ar    1  LIG1       -0.0276
      9 C          -9.9416   -2.0125    2.1796 C.ar    1  LIG1       -0.0275
     10 C          -5.2144   -1.1799   -1.0783 C.ar    1  LIG1       -0.0022
     11 C         -10.7179   -3.1306    1.7645 C.ar    1  LIG1        0.0004
     12 C          -4.3660   -0.8927   -0.0069 C.ar    1  LIG1        0.0378
     13 C          -9.8750   -3.9626    1.0245 C.ar    1  LIG1        0.0379
     14 C         -12.5096   -4.7162    1.3855 C.ar    1  LIG1        0.0860
     15 C          -6.4331   -1.2163    0.8251 C.ar    1  LIG1        0.0811
     16 C          -8.6662   -2.1844    1.6930 C.ar    1  LIG1        0.0811
     17 C          -7.5345   -1.3264    1.8493 C.2     1  LIG1        0.2206
     18 C         -14.5284   -5.2470    0.3598 C.2     1  LIG1        0.2656
     19 C         -15.9921   -6.9743    1.4507 C.3     1  LIG1       -0.0560
     20 C         -15.9452   -5.6675    0.6785 C.3     1  LIG1        0.0313
     21 N          -5.1328   -0.9214    1.1361 N.ar    1  LIG1       -0.3112
     22 N          -8.6359   -3.3633    0.9974 N.ar    1  LIG1       -0.3112
     23 O          -7.3982   -0.6081    2.8670 O.2     1  LIG1       -0.2856
     24 O         -14.0784   -5.0678   -0.7639 O.2     1  LIG1       -0.2661
     25 O         -13.8072   -5.0958    1.5585 O.3     1  LIG1       -0.2782
     26 H          -2.8898   -0.9849   -3.5623 H       1  LIG1        0.0623
     27 H          -1.4312   -0.4830   -1.6360 H       1  LIG1        0.0623
     28 H          -5.3058   -1.4338   -3.2370 H       1  LIG1        0.0629
     29 H          -2.3592   -0.4164    0.6746 H       1  LIG1        0.0642
     30 H          -9.6381   -5.7968   -0.1154 H       1  LIG1        0.0643
     31 H         -12.0092   -6.4569    0.2206 H       1  LIG1        0.0651
     32 H         -12.7408   -2.8887    2.5183 H       1  LIG1        0.0657
     33 H          -7.4131   -1.6219   -1.0923 H       1  LIG1        0.0651
     34 H         -10.2838   -1.1739    2.7716 H       1  LIG1        0.0651
     35 H         -15.4514   -6.8900    2.3993 H       1  LIG1        0.0236
     36 H         -17.0281   -7.2500    1.6710 H       1  LIG1        0.0236
     37 H         -15.5358   -7.7872    0.8764 H       1  LIG1        0.0236
     38 H         -16.4930   -5.7825   -0.2627 H       1  LIG1        0.0370
     39 H         -16.4152   -4.8777    1.2741 H       1  LIG1        0.0370
     40 H          -4.7828   -0.7501    2.0688 H       1  LIG1        0.1529
     41 H          -7.8235   -3.7418    0.5301 H       1  LIG1        0.1529
@<TRIPOS>BOND
     1     1     2   ar
     2     1     3   ar
     3     2     4   ar
     4     3    10   ar
     5     4    12   ar
     6     5     6   ar
     7     5    13   ar
     8     6    14   ar
     9     7    11   ar
    10     7    14   ar
    11     8    10   ar
    12     8    15   ar
    13     9    11   ar
    14     9    16   ar
    15    10    12   ar
    16    11    13   ar
    17    12    21   ar
    18    13    22   ar
    19    14    25    1
    20    15    17    1
    21    15    21   ar
    22    16    17    1
    23    16    22   ar
    24    17    23    2
    25    18    20    1
    26    18    24    2
    27    18    25    1
    28    19    20    1
    29     1    26    1
    30     2    27    1
    31     3    28    1
    32     4    29    1
    33     5    30    1
    34     6    31    1
    35     7    32    1
    36     8    33    1
    37     9    34    1
    38    19    35    1
    39    19    36    1
    40    19    37    1
    41    20    38    1
    42    20    39    1
    43    21    40    1
    44    22    41    1
