@<TRIPOS>MOLECULE
ChEBML31279
 48 51 0 0 0
SMALL
USER_CHARGES

@<TRIPOS>ATOM
      1 C          -0.1335   -4.1287   -1.4644 C.ar    1  LIG1       -0.0622
      2 C         -10.9589   -3.5028    1.2048 C.ar    1  LIG1       -0.0622
      3 C           0.2371   -2.9243   -0.8664 C.ar    1  LIG1       -0.0616
      4 C          -1.2326   -4.1724   -2.3220 C.ar    1  LIG1       -0.0616
      5 C         -10.8075   -2.1885    1.6466 C.ar    1  LIG1       -0.0618
      6 C          -9.8550   -4.3543    1.1577 C.ar    1  LIG1       -0.0618
      7 C          -0.4914   -1.7635   -1.1260 C.ar    1  LIG1       -0.0530
      8 C          -1.9612   -3.0117   -2.5817 C.ar    1  LIG1       -0.0530
      9 C          -9.5523   -1.7255    2.0411 C.ar    1  LIG1       -0.0538
     10 C          -8.5998   -3.8913    1.5522 C.ar    1  LIG1       -0.0538
     11 C          -2.1788    0.3423   -3.2329 C.ar    1  LIG1       -0.0185
     12 C          -3.2054    1.2758   -2.9960 C.ar    1  LIG1        0.0472
     13 C          -1.5907   -1.8072   -1.9836 C.ar    1  LIG1       -0.0024
     14 C          -8.4484   -2.5769    1.9940 C.ar    1  LIG1       -0.0042
     15 C          -2.3438   -0.6058   -2.2529 C.ar    1  LIG1        0.0598
     16 C          -4.5877    0.1669    0.6076 C.3     1  LIG1        0.0073
     17 C          -5.0529   -1.8839   -0.8079 C.3     1  LIG1        0.0073
     18 C          -5.2627   -0.5130    1.7916 C.3     1  LIG1       -0.0321
     19 C          -5.7241   -2.5427    0.3901 C.3     1  LIG1       -0.0321
     20 C          -3.9939   -0.8625   -0.3661 C.3     1  LIG1        0.0556
     21 C          -7.0979   -2.0796    2.4181 C.3     1  LIG1       -0.0083
     22 N          -3.9665    0.9502   -1.9478 N.ar    1  LIG1       -0.1892
     23 N          -3.4178   -0.1985   -1.5174 N.ar    1  LIG1       -0.2214
     24 N          -6.3097   -1.4778    1.2872 N.4     1  LIG1        0.2494
     25 H           0.4343   -5.0324   -1.2626 H       1  LIG1        0.0622
     26 H         -11.9366   -3.8634    0.8988 H       1  LIG1        0.0622
     27 H           1.0930   -2.8906   -0.1984 H       1  LIG1        0.0623
     28 H          -1.5205   -5.1101   -2.7885 H       1  LIG1        0.0623
     29 H         -11.6671   -1.5257    1.6843 H       1  LIG1        0.0623
     30 H          -9.9727   -5.3779    0.8148 H       1  LIG1        0.0623
     31 H          -0.1883   -0.8319   -0.6541 H       1  LIG1        0.0629
     32 H          -2.8161   -3.0624   -3.2517 H       1  LIG1        0.0629
     33 H          -9.4437   -0.6998    2.3838 H       1  LIG1        0.0628
     34 H          -7.7454   -4.5618    1.5121 H       1  LIG1        0.0628
     35 H          -1.4266    0.3603   -4.0085 H       1  LIG1        0.0660
     36 H          -3.4306    2.1796   -3.5435 H       1  LIG1        0.0857
     37 H          -5.3160    0.8007    0.0842 H       1  LIG1        0.0340
     38 H          -3.7992    0.8374    0.9713 H       1  LIG1        0.0340
     39 H          -4.5910   -2.6542   -1.4373 H       1  LIG1        0.0340
     40 H          -5.8128   -1.3908   -1.4290 H       1  LIG1        0.0340
     41 H          -4.5490   -1.0814    2.3981 H       1  LIG1        0.0815
     42 H          -5.7711    0.2257    2.4197 H       1  LIG1        0.0815
     43 H          -6.5463   -3.1879    0.0642 H       1  LIG1        0.0815
     44 H          -5.0134   -3.1264    0.9858 H       1  LIG1        0.0815
     45 H          -3.1587   -1.3844    0.1155 H       1  LIG1        0.0531
     46 H          -7.1849   -1.3052    3.1878 H       1  LIG1        0.0869
     47 H          -6.4885   -2.8916    2.8291 H       1  LIG1        0.0869
     48 H          -6.9790   -0.9364    0.7233 H       1  LIG1        0.2007
@<TRIPOS>BOND
     1     1     3   ar
     2     1     4   ar
     3     2     5   ar
     4     2     6   ar
     5     3     7   ar
     6     4     8   ar
     7     5     9   ar
     8     6    10   ar
     9     7    13   ar
    10     8    13   ar
    11     9    14   ar
    12    10    14   ar
    13    11    12   ar
    14    11    15   ar
    15    12    22   ar
    16    13    15    1
    17    14    21    1
    18    15    23   ar
    19    16    18    1
    20    16    20    1
    21    17    19    1
    22    17    20    1
    23    18    24    1
    24    19    24    1
    25    20    23    1
    26    21    24    1
    27    22    23   ar
    28     1    25    1
    29     2    26    1
    30     3    27    1
    31     4    28    1
    32     5    29    1
    33     6    30    1
    34     7    31    1
    35     8    32    1
    36     9    33    1
    37    10    34    1
    38    11    35    1
    39    12    36    1
    40    16    37    1
    41    16    38    1
    42    17    39    1
    43    17    40    1
    44    18    41    1
    45    18    42    1
    46    19    43    1
    47    19    44    1
    48    20    45    1
    49    21    46    1
    50    21    47    1
    51    24    48    1
