@<TRIPOS>MOLECULE
ChEBML351563
 52 55 0 0 0
SMALL
USER_CHARGES

@<TRIPOS>ATOM
      1 C         -11.7285   -5.6620    1.1692 C.ar    1  LIG1       -0.0601
      2 C         -12.6074   -4.7426    1.7383 C.ar    1  LIG1       -0.0581
      3 C          -3.0524    1.5729   -2.2554 C.ar    1  LIG1       -0.0575
      4 C          -3.0858   -0.7939   -2.7393 C.ar    1  LIG1       -0.0575
      5 C         -10.3992   -5.3200    0.9045 C.ar    1  LIG1       -0.0402
      6 C          -1.8769    1.7072   -2.9941 C.ar    1  LIG1       -0.0432
      7 C          -1.9104   -0.6595   -3.4781 C.ar    1  LIG1       -0.0432
      8 C         -10.0901   -1.8908    1.9957 C.ar    1  LIG1       -0.0269
      9 C         -10.8454   -3.0814    1.8032 C.ar    1  LIG1        0.0012
     10 C          -3.6568    0.3222   -2.1279 C.ar    1  LIG1       -0.0474
     11 C         -12.1811   -3.4491    2.0608 C.ar    1  LIG1       -0.0336
     12 C          -9.9871   -4.0234    1.2322 C.ar    1  LIG1        0.0381
     13 C          -1.3058    0.5911   -3.6055 C.ar    1  LIG1        0.0406
     14 C          -8.8116   -2.1289    1.5465 C.ar    1  LIG1        0.0838
     15 C          -7.6884   -1.2682    1.5192 C.ar    1  LIG1        0.2165
     16 C          -5.8805   -0.3477    0.9711 C.ar    1  LIG1        0.1721
     17 C         -15.3944   -1.6906    4.3701 C.3     1  LIG1       -0.0457
     18 C         -13.7862   -0.9984    6.1406 C.3     1  LIG1       -0.0457
     19 C          -4.9297    0.1766   -1.3301 C.3     1  LIG1       -0.0202
     20 C         -13.1699   -2.5049    2.6680 C.3     1  LIG1        0.0123
     21 C          -4.6706   -0.1345    0.1673 C.3     1  LIG1        0.0185
     22 C         -12.9863   -2.2927    4.1695 C.3     1  LIG1       -0.0307
     23 N          -7.4939   -0.3088    2.3936 N.ar    1  LIG1       -0.1204
     24 N          -6.3047    0.2968    2.0329 N.ar    1  LIG1       -0.1268
     25 N          -8.7593   -3.4177    1.0876 N.ar    1  LIG1       -0.3109
     26 N         -13.9684   -1.3013    4.6736 N.4     1  LIG1        0.2420
     27 O          -6.7059   -1.3576    0.5815 O.2     1  LIG1       -0.2716
     28 CL          0.1441    0.7573   -4.5169 Cl      1  LIG1       -0.0843
     29 H         -12.0806   -6.6613    0.9260 H       1  LIG1        0.0623
     30 H         -13.6352   -5.0425    1.9301 H       1  LIG1        0.0626
     31 H          -3.4910    2.4472   -1.7819 H       1  LIG1        0.0626
     32 H          -3.5506   -1.7718   -2.6451 H       1  LIG1        0.0626
     33 H          -9.7158   -6.0365    0.4615 H       1  LIG1        0.0642
     34 H          -1.4174    2.6881   -3.0850 H       1  LIG1        0.0638
     35 H          -1.4767   -1.5381   -3.9489 H       1  LIG1        0.0638
     36 H         -10.4484   -0.9609    2.4180 H       1  LIG1        0.0651
     37 H         -15.6005   -2.6311    4.8845 H       1  LIG1        0.0777
     38 H         -16.0437   -0.8927    4.7356 H       1  LIG1        0.0777
     39 H         -15.4861   -1.8068    3.2885 H       1  LIG1        0.0777
     40 H         -13.9550   -1.9228    6.6960 H       1  LIG1        0.0777
     41 H         -12.7664   -0.6357    6.2828 H       1  LIG1        0.0777
     42 H         -14.5163   -0.2355    6.4175 H       1  LIG1        0.0777
     43 H          -5.5076    1.1042   -1.4334 H       1  LIG1        0.0321
     44 H          -5.5555   -0.6117   -1.7677 H       1  LIG1        0.0321
     45 H         -13.0786   -1.5281    2.1711 H       1  LIG1        0.0370
     46 H         -14.1979   -2.8392    2.4661 H       1  LIG1        0.0370
     47 H          -4.0795    0.7117    0.5795 H       1  LIG1        0.0358
     48 H          -3.9737   -0.9989    0.2316 H       1  LIG1        0.0358
     49 H         -11.9958   -1.8830    4.3887 H       1  LIG1        0.0818
     50 H         -13.1349   -3.2101    4.7471 H       1  LIG1        0.0818
     51 H          -7.9406   -3.8658    0.6989 H       1  LIG1        0.1529
     52 H         -13.8029   -0.4103    4.1748 H       1  LIG1        0.1997
@<TRIPOS>BOND
     1     1     2   ar
     2     1     5   ar
     3     2    11   ar
     4     3     6   ar
     5     3    10   ar
     6     4     7   ar
     7     4    10   ar
     8     5    12   ar
     9     6    13   ar
    10     7    13   ar
    11     8     9   ar
    12     8    14   ar
    13     9    11   ar
    14     9    12   ar
    15    10    19    1
    16    11    20    1
    17    12    25   ar
    18    13    28    1
    19    14    15    1
    20    14    25   ar
    21    15    23   ar
    22    15    27   ar
    23    16    21    1
    24    16    24   ar
    25    16    27   ar
    26    17    26    1
    27    18    26    1
    28    19    21    1
    29    20    22    1
    30    22    26    1
    31    23    24   ar
    32     1    29    1
    33     2    30    1
    34     3    31    1
    35     4    32    1
    36     5    33    1
    37     6    34    1
    38     7    35    1
    39     8    36    1
    40    17    37    1
    41    17    38    1
    42    17    39    1
    43    18    40    1
    44    18    41    1
    45    18    42    1
    46    19    43    1
    47    19    44    1
    48    20    45    1
    49    20    46    1
    50    21    47    1
    51    21    48    1
    52    22    49    1
    53    22    50    1
    54    25    51    1
    55    26    52    1
