@<TRIPOS>MOLECULE
ChEBML300330
 50 52 0 0 0
SMALL
USER_CHARGES

@<TRIPOS>ATOM
      1 C         -10.3464   -5.1708    0.4645 C.ar    1  LIG1       -0.0387
      2 C         -11.6840   -5.5238    0.6649 C.ar    1  LIG1       -0.0416
      3 C         -12.0823   -3.5080    1.9589 C.ar    1  LIG1       -0.0343
      4 C          -9.9534   -2.0171    2.1806 C.ar    1  LIG1       -0.0262
      5 C         -10.7378   -3.1312    1.7702 C.ar    1  LIG1       -0.0007
      6 C          -9.9025   -3.9697    1.0288 C.ar    1  LIG1        0.0379
      7 C         -12.5404   -4.7067    1.4002 C.ar    1  LIG1        0.0413
      8 C          -8.6808   -2.1976    1.6898 C.ar    1  LIG1        0.0945
      9 C          -7.4979   -1.3126    1.8474 C.2     1  LIG1        0.2576
     10 C          -4.6246   -0.6215   -0.0684 C.2     1  LIG1        0.2319
     11 C          -2.9929   -1.2301   -2.5706 C.3     1  LIG1       -0.0190
     12 C          -3.0450    1.2318   -1.9022 C.3     1  LIG1       -0.0190
     13 C          -2.3042   -0.9648   -3.9016 C.3     1  LIG1        0.0182
     14 C          -2.3609    1.7030   -3.1774 C.3     1  LIG1        0.0182
     15 C          -2.6246   -0.1903   -1.5017 C.3     1  LIG1        0.0282
     16 C          -5.0916   -1.0115    1.3229 C.3     1  LIG1        0.0887
     17 C          -2.2971   -0.8236    0.8576 C.3     1  LIG1        0.0377
     18 C          -1.9438   -2.2996    0.8637 C.3     1  LIG1        0.0589
     19 N          -8.6600   -3.3778    0.9963 N.ar    1  LIG1       -0.3101
     20 N          -6.3228   -1.7439    1.2399 N.am    1  LIG1       -0.3013
     21 N          -3.2291   -0.5464   -0.2365 N.am    1  LIG1       -0.2950
     22 O          -7.6037   -0.2809    2.5053 O.2     1  LIG1       -0.2704
     23 O          -5.4388   -0.3948   -0.9674 O.2     1  LIG1       -0.2756
     24 O          -1.7979    0.9472   -5.6274 O.2     1  LIG1       -0.4989
     25 O          -4.1549    0.6660   -4.7756 O.2     1  LIG1       -0.4989
     26 O          -1.3687   -2.6528   -0.3879 O.3     1  LIG1       -0.3947
     27 S          -2.7221    0.6363   -4.5543 S.O2    1  LIG1       -0.2592
     28 CL        -14.1832   -5.1751    1.6244 Cl      1  LIG1       -0.0843
     29 H          -9.6806   -5.8082   -0.1077 H       1  LIG1        0.0643
     30 H         -12.0465   -6.4546    0.2338 H       1  LIG1        0.0639
     31 H         -12.7490   -2.8699    2.5332 H       1  LIG1        0.0645
     32 H         -10.2884   -1.1752    2.7717 H       1  LIG1        0.0651
     33 H          -4.0817   -1.2467   -2.7092 H       1  LIG1        0.0301
     34 H          -2.7117   -2.2318   -2.2223 H       1  LIG1        0.0301
     35 H          -2.7985    1.9301   -1.0926 H       1  LIG1        0.0301
     36 H          -4.1349    1.2733   -2.0247 H       1  LIG1        0.0301
     37 H          -1.2154   -1.0013   -3.7938 H       1  LIG1        0.0462
     38 H          -2.6030   -1.7065   -4.6484 H       1  LIG1        0.0462
     39 H          -2.6974    2.7079   -3.4499 H       1  LIG1        0.0462
     40 H          -1.2732    1.7237   -3.0547 H       1  LIG1        0.0462
     41 H          -1.5414   -0.2135   -1.3317 H       1  LIG1        0.0507
     42 H          -4.3537   -1.6588    1.8036 H       1  LIG1        0.0567
     43 H          -5.2791   -0.1193    1.9259 H       1  LIG1        0.0567
     44 H          -2.7729   -0.5255    1.7972 H       1  LIG1        0.0493
     45 H          -1.3993   -0.2177    0.7027 H       1  LIG1        0.0493
     46 H          -2.8478   -2.9008    1.0017 H       1  LIG1        0.0580
     47 H          -1.2307   -2.5395    1.6592 H       1  LIG1        0.0580
     48 H          -7.8513   -3.7623    0.5273 H       1  LIG1        0.1529
     49 H          -6.3044   -2.6454    0.7641 H       1  LIG1        0.1503
     50 H          -1.1586   -3.5993   -0.3418 H       1  LIG1        0.2101
@<TRIPOS>BOND
     1     1     2   ar
     2     1     6   ar
     3     2     7   ar
     4     3     5   ar
     5     3     7   ar
     6     4     5   ar
     7     4     8   ar
     8     5     6   ar
     9     6    19   ar
    10     7    28    1
    11     8     9    1
    12     8    19   ar
    13     9    20   am
    14     9    22    2
    15    10    16    1
    16    10    21   am
    17    10    23    2
    18    11    13    1
    19    11    15    1
    20    12    14    1
    21    12    15    1
    22    13    27    1
    23    14    27    1
    24    15    21    1
    25    16    20    1
    26    17    18    1
    27    17    21    1
    28    18    26    1
    29    24    27    2
    30    25    27    2
    31     1    29    1
    32     2    30    1
    33     3    31    1
    34     4    32    1
    35    11    33    1
    36    11    34    1
    37    12    35    1
    38    12    36    1
    39    13    37    1
    40    13    38    1
    41    14    39    1
    42    14    40    1
    43    15    41    1
    44    16    42    1
    45    16    43    1
    46    17    44    1
    47    17    45    1
    48    18    46    1
    49    18    47    1
    50    19    48    1
    51    20    49    1
    52    26    50    1
