@<TRIPOS>MOLECULE
ChEBML233204
 36 38 0 0 0
SMALL
USER_CHARGES

@<TRIPOS>ATOM
      1 C          -4.3293   -2.7614    0.7251 C.ar    1  LIG1       -0.0589
      2 C          -5.5491   -2.6028    1.3826 C.ar    1  LIG1       -0.0508
      3 C         -10.3305   -5.0590    0.2830 C.ar    1  LIG1       -0.0376
      4 C          -3.8567   -1.7572   -0.1200 C.ar    1  LIG1       -0.0314
      5 C         -11.6329   -5.5034    0.5281 C.ar    1  LIG1       -0.0299
      6 C         -12.0306   -3.6694    2.0693 C.ar    1  LIG1       -0.0226
      7 C          -9.9618   -2.1008    2.3223 C.ar    1  LIG1       -0.0275
      8 C          -5.8239   -0.4358    0.3500 C.ar    1  LIG1       -0.0202
      9 C         -10.7215   -3.2024    1.8381 C.ar    1  LIG1        0.0003
     10 C          -6.2964   -1.4399    1.1951 C.ar    1  LIG1        0.0264
     11 C          -9.9032   -3.9065    0.9521 C.ar    1  LIG1        0.0379
     12 C         -12.4716   -4.8209    1.4070 C.ar    1  LIG1        0.0753
     13 C          -4.6040   -0.5945   -0.3075 C.ar    1  LIG1        0.0854
     14 C          -8.7202   -2.1567    1.7321 C.ar    1  LIG1        0.0797
     15 C          -7.6153   -1.2678    1.9058 C.2     1  LIG1        0.2067
     16 C         -14.1290   -6.4562    0.9228 C.3     1  LIG1        0.0422
     17 C          -3.3261    0.0093   -2.2349 C.3     1  LIG1        0.5271
     18 N          -8.6945   -3.2491    0.9072 N.ar    1  LIG1       -0.3112
     19 O          -7.6890   -0.2805    2.6741 O.2     1  LIG1       -0.2871
     20 O         -13.7365   -5.2791    1.6253 O.3     1  LIG1       -0.3493
     21 O          -4.1430    0.3855   -1.1318 O.3     1  LIG1       -0.2541
     22 F          -3.6436   -1.2266   -2.6753 F       1  LIG1       -0.1435
     23 F          -2.0346   -0.0105   -1.8338 F       1  LIG1       -0.1435
     24 F          -3.4339    0.8984   -3.2450 F       1  LIG1       -0.1435
     25 H          -3.7476   -3.6667    0.8712 H       1  LIG1        0.0624
     26 H          -5.9077   -3.3908    2.0395 H       1  LIG1        0.0630
     27 H          -9.6784   -5.5908   -0.4018 H       1  LIG1        0.0643
     28 H          -2.9057   -1.8867   -0.6293 H       1  LIG1        0.0650
     29 H         -11.9897   -6.3968    0.0207 H       1  LIG1        0.0651
     30 H         -12.6910   -3.1424    2.7526 H       1  LIG1        0.0657
     31 H         -10.2925   -1.3498    3.0276 H       1  LIG1        0.0651
     32 H          -6.4024    0.4732    0.2008 H       1  LIG1        0.0658
     33 H         -15.1579   -6.7129    1.1867 H       1  LIG1        0.0535
     34 H         -13.4585   -7.2785    1.1846 H       1  LIG1        0.0535
     35 H         -14.0674   -6.2662   -0.1514 H       1  LIG1        0.0535
     36 H          -7.9045   -3.5345    0.3450 H       1  LIG1        0.1529
@<TRIPOS>BOND
     1     1     2   ar
     2     1     4   ar
     3     2    10   ar
     4     3     5   ar
     5     3    11   ar
     6     4    13   ar
     7     5    12   ar
     8     6     9   ar
     9     6    12   ar
    10     7     9   ar
    11     7    14   ar
    12     8    10   ar
    13     8    13   ar
    14     9    11   ar
    15    10    15    1
    16    11    18   ar
    17    12    20    1
    18    13    21    1
    19    14    15    1
    20    14    18   ar
    21    15    19    2
    22    16    20    1
    23    17    21    1
    24    17    22    1
    25    17    23    1
    26    17    24    1
    27     1    25    1
    28     2    26    1
    29     3    27    1
    30     4    28    1
    31     5    29    1
    32     6    30    1
    33     7    31    1
    34     8    32    1
    35    16    33    1
    36    16    34    1
    37    16    35    1
    38    18    36    1
