@<TRIPOS>MOLECULE
ChEBML345717
 34 36 0 0 0
SMALL
USER_CHARGES

@<TRIPOS>ATOM
      1 C          -2.7425    1.0171   -3.4037 C.ar    1  LIG1       -0.0621
      2 C         -12.3377   -4.9885    1.6001 C.ar    1  LIG1       -0.0615
      3 C         -11.5559   -5.5474    0.5859 C.ar    1  LIG1       -0.0596
      4 C          -2.3210    1.4036   -2.1314 C.ar    1  LIG1       -0.0604
      5 C          -3.5378   -0.1181   -3.5601 C.ar    1  LIG1       -0.0604
      6 C         -11.9081   -3.8541    2.3022 C.ar    1  LIG1       -0.0522
      7 C         -10.3197   -4.9959    0.2359 C.ar    1  LIG1       -0.0306
      8 C          -2.6950    0.6548   -1.0156 C.ar    1  LIG1       -0.0395
      9 C          -3.9116   -0.8669   -2.4442 C.ar    1  LIG1       -0.0395
     10 C          -9.9038   -2.1754    2.4197 C.ar    1  LIG1       -0.0158
     11 C         -10.6681   -3.2828    1.9667 C.ar    1  LIG1        0.0081
     12 C          -9.9195   -3.8688    0.9512 C.ar    1  LIG1        0.0896
     13 C          -3.4902   -0.4804   -1.1719 C.ar    1  LIG1        0.0558
     14 C          -8.7563   -2.1596    1.6609 C.ar    1  LIG1        0.1467
     15 C          -7.6338   -1.2850    1.6696 C.2     1  LIG1        0.2839
     16 N          -6.5962   -1.5363    0.7515 N.am    1  LIG1       -0.2190
     17 N          -5.4258   -0.6839    0.6971 N.3     1  LIG1       -0.2074
     18 O          -7.5571   -0.3087    2.4614 O.2     1  LIG1       -0.2678
     19 O          -2.9725   -1.2046    1.2800 O.2     1  LIG1       -0.4750
     20 O          -4.2376   -2.7773   -0.2219 O.2     1  LIG1       -0.4750
     21 O          -8.7561   -3.1830    0.7673 O.2     1  LIG1       -0.3042
     22 S          -3.9613   -1.4318    0.2433 S.O2    1  LIG1       -0.1526
     23 H          -2.4511    1.5993   -4.2731 H       1  LIG1        0.0622
     24 H         -13.2948   -5.4395    1.8494 H       1  LIG1        0.0623
     25 H         -11.9149   -6.4276    0.0583 H       1  LIG1        0.0623
     26 H          -1.7010    2.2867   -2.0093 H       1  LIG1        0.0623
     27 H          -3.8650   -0.4192   -4.5509 H       1  LIG1        0.0623
     28 H         -12.5267   -3.4306    3.0877 H       1  LIG1        0.0630
     29 H          -9.7088   -5.4237   -0.5499 H       1  LIG1        0.0650
     30 H          -2.3604    0.9642   -0.0290 H       1  LIG1        0.0642
     31 H          -4.5302   -1.7502   -2.5778 H       1  LIG1        0.0642
     32 H         -10.1617   -1.4776    3.2043 H       1  LIG1        0.0660
     33 H          -6.6137   -2.3163    0.1038 H       1  LIG1        0.1756
     34 H          -5.4046    0.1003    1.3604 H       1  LIG1        0.1892
@<TRIPOS>BOND
     1     1     4   ar
     2     1     5   ar
     3     2     3   ar
     4     2     6   ar
     5     3     7   ar
     6     4     8   ar
     7     5     9   ar
     8     6    11   ar
     9     7    12   ar
    10     8    13   ar
    11     9    13   ar
    12    10    11   ar
    13    10    14   ar
    14    11    12   ar
    15    12    21   ar
    16    13    22    1
    17    14    15    1
    18    14    21   ar
    19    15    16   am
    20    15    18    2
    21    16    17    1
    22    17    22    1
    23    19    22    2
    24    20    22    2
    25     1    23    1
    26     2    24    1
    27     3    25    1
    28     4    26    1
    29     5    27    1
    30     6    28    1
    31     7    29    1
    32     8    30    1
    33     9    31    1
    34    10    32    1
    35    16    33    1
    36    17    34    1
