@<TRIPOS>MOLECULE
ChEBML204946
 66 69 0 0 0
SMALL
USER_CHARGES

@<TRIPOS>ATOM
      1 C          -2.7080   -0.8127   -4.0995 C.ar    1  LIG1       -0.0418
      2 C         -10.4144   -4.7025   -0.1889 C.ar    1  LIG1       -0.0383
      3 C          -2.4178    0.5214   -3.8477 C.ar    1  LIG1       -0.0360
      4 C         -11.7684   -4.9369   -0.2543 C.ar    1  LIG1       -0.0377
      5 C         -12.1683   -3.3458    1.5077 C.ar    1  LIG1       -0.0304
      6 C         -10.0022   -2.2437    2.3920 C.ar    1  LIG1       -0.0261
      7 C          -3.4123   -1.5410   -3.1624 C.ar    1  LIG1        0.0292
      8 C         -10.7911   -3.0978    1.5839 C.ar    1  LIG1       -0.0003
      9 C          -9.9093   -3.7835    0.7268 C.ar    1  LIG1        0.0379
     10 C         -12.6476   -4.2608    0.5924 C.ar    1  LIG1        0.0437
     11 C          -2.8510    1.0781   -2.6516 C.ar    1  LIG1        0.0672
     12 C          -8.7035   -2.4143    2.0303 C.ar    1  LIG1        0.0947
     13 C          -3.5546    0.2777   -1.7482 C.ar    1  LIG1        0.1411
     14 C          -7.5545   -1.7137    2.6231 C.2     1  LIG1        0.2598
     15 C          -4.7055    0.1589    1.7068 C.3     1  LIG1       -0.0185
     16 C          -5.8431   -0.7696   -0.3167 C.3     1  LIG1       -0.0185
     17 C          -5.2082   -1.0191    2.5474 C.3     1  LIG1        0.0162
     18 C          -6.3587   -1.9579    0.5009 C.3     1  LIG1        0.0162
     19 C          -4.5057   -0.3003    0.2607 C.3     1  LIG1        0.0268
     20 C          -2.8143    3.8256   -4.3405 C.3     1  LIG1       -0.0470
     21 C          -1.1515    4.3920   -2.5638 C.3     1  LIG1       -0.0470
     22 C          -5.1425    1.6760   -0.8553 C.3     1  LIG1        0.0018
     23 C         -14.2267   -5.8528    2.8715 C.3     1  LIG1        0.0225
     24 C          -1.8431    3.2484   -3.3087 C.3     1  LIG1        0.0142
     25 N          -3.8130   -0.9879   -2.0323 N.ar    1  LIG1       -0.2394
     26 N          -8.6352   -3.3461    1.0133 N.ar    1  LIG1       -0.3101
     27 N          -6.4159   -1.5688    1.9165 N.am    1  LIG1       -0.2966
     28 N          -2.5818    2.4193   -2.3531 N.pl3   1  LIG1       -0.3393
     29 N         -14.0222   -4.5118    0.5132 N.pl3   1  LIG1       -0.2633
     30 N          -3.9919    0.8183   -0.5413 N.pl3   1  LIG1       -0.3142
     31 O          -7.6316   -1.2650    3.7511 O.2     1  LIG1       -0.2702
     32 O         -16.0369   -5.7784    0.8899 O.2     1  LIG1       -0.4814
     33 O         -13.8731   -6.9151    0.4310 O.2     1  LIG1       -0.4814
     34 S         -14.6406   -5.9286    1.1070 S.O2    1  LIG1       -0.1957
     35 H          -2.3860   -1.2762   -5.0203 H       1  LIG1        0.0639
     36 H          -9.7427   -5.2317   -0.8486 H       1  LIG1        0.0643
     37 H          -1.8684    1.1124   -4.5656 H       1  LIG1        0.0644
     38 H         -12.1542   -5.6508   -0.9668 H       1  LIG1        0.0643
     39 H         -12.8509   -2.8240    2.1621 H       1  LIG1        0.0650
     40 H         -10.3671   -1.5763    3.1586 H       1  LIG1        0.0651
     41 H          -3.6394   -2.5789   -3.3564 H       1  LIG1        0.0840
     42 H          -3.7574    0.5148    2.1098 H       1  LIG1        0.0302
     43 H          -5.4387    0.9649    1.7347 H       1  LIG1        0.0302
     44 H          -6.5656    0.0452   -0.2699 H       1  LIG1        0.0302
     45 H          -5.7045   -1.0744   -1.3541 H       1  LIG1        0.0302
     46 H          -4.4381   -1.7890    2.5951 H       1  LIG1        0.0470
     47 H          -5.4462   -0.6745    3.5538 H       1  LIG1        0.0470
     48 H          -5.6825   -2.8045    0.3817 H       1  LIG1        0.0470
     49 H          -7.3558   -2.2330    0.1570 H       1  LIG1        0.0470
     50 H          -3.7910   -1.1228    0.2365 H       1  LIG1        0.0506
     51 H          -3.3070    3.0109   -4.8712 H       1  LIG1        0.0249
     52 H          -3.5630    4.4345   -3.8339 H       1  LIG1        0.0249
     53 H          -2.2647    4.4425   -5.0515 H       1  LIG1        0.0249
     54 H          -1.9003    5.0009   -2.0572 H       1  LIG1        0.0249
     55 H          -0.4597    3.9808   -1.8287 H       1  LIG1        0.0249
     56 H          -0.6019    5.0088   -3.2748 H       1  LIG1        0.0249
     57 H          -5.6081    2.0127    0.0709 H       1  LIG1        0.0432
     58 H          -4.8057    2.5403   -1.4277 H       1  LIG1        0.0432
     59 H          -5.8672    1.1114   -1.4420 H       1  LIG1        0.0432
     60 H         -14.7618   -5.0240    3.3350 H       1  LIG1        0.0442
     61 H         -14.5160   -6.7868    3.3530 H       1  LIG1        0.0442
     62 H         -13.1533   -5.7019    2.9867 H       1  LIG1        0.0442
     63 H          -1.0943    2.6395   -3.8153 H       1  LIG1        0.0497
     64 H          -7.8234   -3.6447    0.5742 H       1  LIG1        0.1529
     65 H          -2.8843    2.7995   -1.5136 H       1  LIG1        0.1469
     66 H         -14.6127   -3.8560    0.1105 H       1  LIG1        0.1702
@<TRIPOS>BOND
     1     1     3   ar
     2     1     7   ar
     3     2     4   ar
     4     2     9   ar
     5     3    11   ar
     6     4    10   ar
     7     5     8   ar
     8     5    10   ar
     9     6     8   ar
    10     6    12   ar
    11     7    25   ar
    12     8     9   ar
    13     9    26   ar
    14    10    29    1
    15    11    13   ar
    16    11    28    1
    17    12    14    1
    18    12    26   ar
    19    13    25   ar
    20    13    30    1
    21    14    27   am
    22    14    31    2
    23    15    17    1
    24    15    19    1
    25    16    18    1
    26    16    19    1
    27    17    27    1
    28    18    27    1
    29    19    30    1
    30    20    24    1
    31    21    24    1
    32    22    30    1
    33    23    34    1
    34    24    28    1
    35    29    34    1
    36    32    34    2
    37    33    34    2
    38     1    35    1
    39     2    36    1
    40     3    37    1
    41     4    38    1
    42     5    39    1
    43     6    40    1
    44     7    41    1
    45    15    42    1
    46    15    43    1
    47    16    44    1
    48    16    45    1
    49    17    46    1
    50    17    47    1
    51    18    48    1
    52    18    49    1
    53    19    50    1
    54    20    51    1
    55    20    52    1
    56    20    53    1
    57    21    54    1
    58    21    55    1
    59    21    56    1
    60    22    57    1
    61    22    58    1
    62    22    59    1
    63    23    60    1
    64    23    61    1
    65    23    62    1
    66    24    63    1
    67    26    64    1
    68    28    65    1
    69    29    66    1
