@<TRIPOS>MOLECULE
ChEBML232722
 43 45 0 0 0
SMALL
USER_CHARGES

@<TRIPOS>ATOM
      1 C         -11.4502   -5.6457    0.7068 C.ar    1  LIG1       -0.0574
      2 C         -10.1222   -5.2301    0.5745 C.ar    1  LIG1       -0.0399
      3 C         -12.0702   -3.5326    1.7303 C.ar    1  LIG1       -0.0501
      4 C         -10.0547   -1.8915    1.9510 C.ar    1  LIG1       -0.0276
      5 C          -5.2447   -0.6207    1.2509 C.ar    1  LIG1       -0.0177
      6 C          -6.6496   -1.4087   -0.5497 C.ar    1  LIG1       -0.0177
      7 C         -10.7375   -3.0918    1.6076 C.ar    1  LIG1       -0.0020
      8 C          -6.4902   -1.0443    0.7872 C.ar    1  LIG1        0.0292
      9 C         -12.4109   -4.8116    1.2753 C.ar    1  LIG1       -0.0504
     10 C          -9.7961   -3.9491    1.0337 C.ar    1  LIG1        0.0378
     11 C          -4.1586   -0.5614    0.3777 C.ar    1  LIG1        0.1082
     12 C          -5.5635   -1.3495   -1.4230 C.ar    1  LIG1        0.1082
     13 C          -4.3180   -0.9259   -0.9593 C.ar    1  LIG1        0.1352
     14 C          -8.7365   -2.0406    1.5861 C.ar    1  LIG1        0.0797
     15 C          -7.6656   -1.1059    1.7300 C.2     1  LIG1        0.2068
     16 C         -13.8206   -5.2858    1.4018 C.3     1  LIG1       -0.0397
     17 C          -2.0715   -1.1470    1.3557 C.3     1  LIG1        0.0424
     18 C          -7.0378   -2.1288   -3.1186 C.3     1  LIG1        0.0424
     19 C          -3.0502    0.3581   -2.5085 C.3     1  LIG1        0.0425
     20 N          -8.5904   -3.2847    1.0336 N.ar    1  LIG1       -0.3112
     21 O          -7.6497   -0.2738    2.6668 O.2     1  LIG1       -0.2871
     22 O          -2.9478   -0.1454    0.8431 O.3     1  LIG1       -0.3464
     23 O          -5.7328   -1.7076   -2.7266 O.3     1  LIG1       -0.3464
     24 O          -3.2558   -0.8689   -1.8122 O.3     1  LIG1       -0.3440
     25 H         -11.7274   -6.6377    0.3569 H       1  LIG1        0.0626
     26 H          -9.3750   -5.8801    0.1318 H       1  LIG1        0.0643
     27 H         -12.8225   -2.8853    2.1731 H       1  LIG1        0.0632
     28 H         -10.4860   -1.0148    2.4158 H       1  LIG1        0.0651
     29 H          -5.1159   -0.3339    2.2922 H       1  LIG1        0.0659
     30 H          -7.6187   -1.7403   -0.9156 H       1  LIG1        0.0659
     31 H         -13.9666   -5.7938    2.3625 H       1  LIG1        0.0280
     32 H         -14.5282   -4.4496    1.3382 H       1  LIG1        0.0280
     33 H         -14.0787   -5.9837    0.5952 H       1  LIG1        0.0280
     34 H          -1.1424   -0.6814    1.6931 H       1  LIG1        0.0535
     35 H          -1.8605   -1.8821    0.5749 H       1  LIG1        0.0535
     36 H          -2.5550   -1.6439    2.2002 H       1  LIG1        0.0535
     37 H          -7.0349   -2.3852   -4.1808 H       1  LIG1        0.0535
     38 H          -7.7534   -1.3247   -2.9290 H       1  LIG1        0.0535
     39 H          -7.3178   -3.0084   -2.5344 H       1  LIG1        0.0535
     40 H          -2.1727    0.2692   -3.1536 H       1  LIG1        0.0535
     41 H          -2.9055    1.1671   -1.7879 H       1  LIG1        0.0535
     42 H          -3.9297    0.5711   -3.1207 H       1  LIG1        0.0535
     43 H          -7.7242   -3.6641    0.6763 H       1  LIG1        0.1529
@<TRIPOS>BOND
     1     1     2   ar
     2     1     9   ar
     3     2    10   ar
     4     3     7   ar
     5     3     9   ar
     6     4     7   ar
     7     4    14   ar
     8     5     8   ar
     9     5    11   ar
    10     6     8   ar
    11     6    12   ar
    12     7    10   ar
    13     8    15    1
    14     9    16    1
    15    10    20   ar
    16    11    13   ar
    17    11    22    1
    18    12    13   ar
    19    12    23    1
    20    13    24    1
    21    14    15    1
    22    14    20   ar
    23    15    21    2
    24    17    22    1
    25    18    23    1
    26    19    24    1
    27     1    25    1
    28     2    26    1
    29     3    27    1
    30     4    28    1
    31     5    29    1
    32     6    30    1
    33    16    31    1
    34    16    32    1
    35    16    33    1
    36    17    34    1
    37    17    35    1
    38    17    36    1
    39    18    37    1
    40    18    38    1
    41    18    39    1
    42    19    40    1
    43    19    41    1
    44    19    42    1
    45    20    43    1
