@<TRIPOS>MOLECULE
ChEBML889625
 41 43 0 0 0
SMALL
USER_CHARGES

@<TRIPOS>ATOM
      1 C         -11.6928   -5.5703    1.1392 C.ar    1  LIG1       -0.0616
      2 C         -11.9979   -5.1959    2.4444 C.ar    1  LIG1       -0.0616
      3 C          -2.9194    1.0573   -3.5600 C.ar    1  LIG1       -0.0613
      4 C          -1.5861    0.6483   -3.5830 C.ar    1  LIG1       -0.0596
      5 C         -10.7251   -4.8690    0.4194 C.ar    1  LIG1       -0.0543
      6 C         -11.3364   -4.1189    3.0349 C.ar    1  LIG1       -0.0543
      7 C          -3.8404    0.3885   -2.7536 C.ar    1  LIG1       -0.0470
      8 C          -1.1737   -0.4296   -2.7996 C.ar    1  LIG1       -0.0313
      9 C          -9.0724   -3.0650    0.2882 C.ar    1  LIG1       -0.0391
     10 C          -9.6839   -2.3147    2.9038 C.ar    1  LIG1       -0.0231
     11 C         -10.0493   -3.7822    0.9979 C.ar    1  LIG1       -0.0174
     12 C         -10.3596   -3.4015    2.3252 C.ar    1  LIG1       -0.0157
     13 C          -3.4279   -0.6894   -1.9702 C.ar    1  LIG1        0.0685
     14 C          -8.4110   -1.9878    0.8787 C.ar    1  LIG1        0.0694
     15 C          -2.0947   -1.0984   -1.9932 C.ar    1  LIG1        0.0839
     16 C          -8.7161   -1.6135    2.1839 C.ar    1  LIG1        0.0878
     17 C          -4.4256   -1.3876   -1.1185 C.2     1  LIG1        0.2618
     18 C          -7.4038   -1.2684    0.1112 C.2     1  LIG1        0.2619
     19 C          -6.8828   -0.8533    3.4943 C.3     1  LIG1        0.0423
     20 N          -5.7233   -1.3869   -1.5930 N.am    1  LIG1       -0.2303
     21 N          -6.7003   -2.0008   -0.8448 N.am    1  LIG1       -0.2303
     22 O          -4.0626   -1.9008   -0.0630 O.2     1  LIG1       -0.2701
     23 O          -7.1876   -0.0629    0.3258 O.2     1  LIG1       -0.2701
     24 O          -1.6720   -2.1482   -1.2333 O.3     1  LIG1       -0.3601
     25 O          -8.0807   -0.5634    2.7771 O.3     1  LIG1       -0.3485
     26 H         -12.2078   -6.4093    0.6802 H       1  LIG1        0.0623
     27 H         -12.7518   -5.7424    3.0039 H       1  LIG1        0.0623
     28 H          -3.2402    1.8968   -4.1703 H       1  LIG1        0.0623
     29 H          -0.8698    1.1691   -4.2115 H       1  LIG1        0.0623
     30 H         -10.5022   -5.1795   -0.5994 H       1  LIG1        0.0629
     31 H         -11.5910   -3.8443    4.0564 H       1  LIG1        0.0629
     32 H          -4.8768    0.7163   -2.7434 H       1  LIG1        0.0632
     33 H          -0.1335   -0.7431   -2.8219 H       1  LIG1        0.0650
     34 H          -8.8260   -3.3494   -0.7337 H       1  LIG1        0.0638
     35 H          -9.9112   -2.0094    3.9237 H       1  LIG1        0.0657
     36 H          -6.4781    0.0695    3.9170 H       1  LIG1        0.0535
     37 H          -6.1537   -1.3079    2.8189 H       1  LIG1        0.0535
     38 H          -7.1128   -1.5515    4.3026 H       1  LIG1        0.0535
     39 H          -6.0319   -0.9296   -2.4439 H       1  LIG1        0.1743
     40 H          -6.8321   -2.9930   -1.0080 H       1  LIG1        0.1743
     41 H          -0.7230   -2.2967   -1.3665 H       1  LIG1        0.2182
@<TRIPOS>BOND
     1     1     2   ar
     2     1     5   ar
     3     2     6   ar
     4     3     4   ar
     5     3     7   ar
     6     4     8   ar
     7     5    11   ar
     8     6    12   ar
     9     7    13   ar
    10     8    15   ar
    11     9    11   ar
    12     9    14   ar
    13    10    12   ar
    14    10    16   ar
    15    11    12   ar
    16    13    15   ar
    17    13    17    1
    18    14    16   ar
    19    14    18    1
    20    15    24    1
    21    16    25    1
    22    17    20   am
    23    17    22    2
    24    18    21   am
    25    18    23    2
    26    19    25    1
    27    20    21    1
    28     1    26    1
    29     2    27    1
    30     3    28    1
    31     4    29    1
    32     5    30    1
    33     6    31    1
    34     7    32    1
    35     8    33    1
    36     9    34    1
    37    10    35    1
    38    19    36    1
    39    19    37    1
    40    19    38    1
    41    20    39    1
    42    21    40    1
    43    24    41    1
