@<TRIPOS>MOLECULE
ChEBML570253
 54 57 0 0 0
SMALL
USER_CHARGES

@<TRIPOS>ATOM
      1 CZ          0.4675   -2.2154   -1.2165 C.ar    1  PHE1        0.0000
      2 C          -3.6568    1.3990    3.1686 C.ar    0  UNK0        0.0000
      3 CE1         0.2001   -0.9812   -0.6543 C.ar    1  PHE1        0.0000
      4 CE2        -0.2120   -2.6205   -2.3500 C.ar    1  PHE1        0.0000
      5 C          -4.5963    0.8613    4.0339 C.ar    0  UNK0        0.0000
      6 C          -3.6715    1.0667    1.8315 C.ar    0  UNK0        0.0000
      7 CD1        -0.7467   -0.1518   -1.2260 C.ar    1  PHE1        0.0000
      8 CD2        -1.1617   -1.7929   -2.9193 C.ar    1  PHE1        0.0000
      9 C         -10.0651   -5.0741    0.0430 C.ar    0  UNK0        0.0000
     10 C          -5.5571   -0.0121    3.5665 C.ar    0  UNK0        0.0000
     11 C         -11.3318   -5.6063    0.1302 C.ar    0  UNK0        0.0000
     12 C         -11.9684   -3.9621    1.7470 C.ar    0  UNK0        0.0000
     13 C         -10.0674   -2.3049    2.3231 C.ar    0  UNK0        0.0000
     14 C         -10.6861   -3.4019    1.6765 C.ar    0  UNK0        0.0000
     15 C          -4.6379    0.1838    1.3434 C.ar    0  UNK0        0.0000
     16 CG         -1.4255   -0.5565   -2.3602 C.ar    1  PHE1        0.0000
     17 C          -9.7256   -3.9657    0.8141 C.ar    0  UNK0        0.0000
     18 C         -12.2776   -5.0481    0.9812 C.ar    0  UNK0        0.0000
     19 C          -5.5915   -0.3538    2.2208 C.ar    0  UNK0        0.0000
     20 C          -8.7912   -2.2200    1.8638 C.ar    0  UNK0        0.0000
     21 C          -4.6593   -0.1761   -0.0869 C.2     0  UNK0        0.0000
     22 C          -7.8011   -1.2159    2.2788 C.2     0  UNK0        0.0000
     23 C          -4.8787    0.8761   -3.0723 C.2     1  PHE1        0.0000
     24 CB         -2.4575    0.3476   -2.9834 C.3     1  PHE1        0.0000
     25 CA         -3.8272    0.0608   -2.3648 C.3     1  PHE1        0.0000
     26 N          -8.5746   -3.2242    0.9401 N.ar    0  UNK0        0.0000
     27 N          -6.5631   -1.2299    1.7462 N.am    0  UNK0        0.0000
     28 N          -3.8060    0.4182   -0.9442 N.am    1  PHE1        0.0000
     29 N         -13.6333   -5.6375    1.0582 N.pl3   0  UNK0        1.0000
     30 O          -5.4239    1.8011   -2.4946 O.co2   1  PHE1       -0.5000
     31 O          -5.4467   -1.0091   -0.4925 O.2     0  UNK0        0.0000
     32 O          -8.0991   -0.3722    3.1030 O.2     0  UNK0        0.0000
     33 OXT        -5.1878    0.6076   -4.2207 O.co2   1  PHE1       -0.5000
     34 O         -14.4667   -5.1529    1.8026 O.2     0  UNK0        0.0000
     35 O         -13.9155   -6.6070    0.3770 O.2     0  UNK0       -1.0000
     36 HZ          1.2077   -2.8630   -0.7701 H       1  PHE1        0.0000
     37 H          -2.9089    2.0816    3.5444 H       0  UNK0        0.0000
     38 HE1         0.7309   -0.6646    0.2314 H       1  PHE1        0.0000
     39 HE2        -0.0027   -3.5846   -2.7895 H       1  PHE1        0.0000
     40 H          -4.5762    1.1273    5.0803 H       0  UNK0        0.0000
     41 H          -2.9365    1.4879    1.1616 H       0  UNK0        0.0000
     42 HD1        -0.9557    0.8125   -0.7868 H       1  PHE1        0.0000
     43 HD2        -1.6953   -2.1109   -3.8028 H       1  PHE1        0.0000
     44 H          -9.3370   -5.5149   -0.6217 H       0  UNK0        0.0000
     45 H          -6.2859   -0.4269    4.2472 H       0  UNK0        0.0000
     46 H         -11.5928   -6.4664   -0.4687 H       0  UNK0        0.0000
     47 H         -12.7101   -3.5355    2.4061 H       0  UNK0        0.0000
     48 H         -10.5270   -1.6529    3.0511 H       0  UNK0        0.0000
     49 HB1        -2.4987    0.1659   -4.0574 H       1  PHE1        0.0000
     50 HB2        -2.1871    1.3877   -2.8010 H       1  PHE1        0.0000
     51 HA         -4.0582   -0.9993   -2.4692 H       1  PHE1        0.0000
     52 H          -7.7460   -3.3818    0.4610 H       0  UNK0        0.0000
     53 H          -6.3493   -1.8506    1.0321 H       0  UNK0        0.0000
     54 H          -3.1778    1.0828   -0.6207 H       1  PHE1        0.0000
@<TRIPOS>BOND
     1     1     3   ar
     2     1     4   ar
     3     2     5   ar
     4     2     6   ar
     5     3     7   ar
     6     4     8   ar
     7     5    10   ar
     8     6    15   ar
     9     7    16   ar
    10     8    16   ar
    11     9    11   ar
    12     9    17   ar
    13    10    19   ar
    14    11    18   ar
    15    12    14   ar
    16    12    18   ar
    17    13    14   ar
    18    13    20   ar
    19    14    17   ar
    20    15    19   ar
    21    15    21    1
    22    16    24    1
    23    17    26   ar
    24    18    29    1
    25    19    27    1
    26    20    22    1
    27    20    26   ar
    28    21    28   am
    29    21    31    2
    30    22    27   am
    31    22    32    2
    32    23    25    1
    33    23    30   ar
    34    23    33   ar
    35    24    25    1
    36    25    28    1
    37    29    34    2
    38    29    35    2
    39     1    36    1
    40     2    37    1
    41     3    38    1
    42     4    39    1
    43     5    40    1
    44     6    41    1
    45     7    42    1
    46     8    43    1
    47     9    44    1
    48    10    45    1
    49    11    46    1
    50    12    47    1
    51    13    48    1
    52    24    49    1
    53    24    50    1
    54    25    51    1
    55    26    52    1
    56    27    53    1
    57    28    54    1
