@<TRIPOS>MOLECULE
ChEBML17396
 35 36 0 0 0
SMALL
USER_CHARGES

@<TRIPOS>ATOM
      1 C          -9.9944   -5.1309    0.4671 C.ar    1  LIG1       -0.0339
      2 C         -10.8538   -3.0425    1.3258 C.ar    1  LIG1       -0.0339
      3 C         -11.2844   -5.6612    0.4654 C.ar    1  LIG1        0.0170
      4 C         -12.1439   -3.5728    1.3240 C.ar    1  LIG1        0.0170
      5 C          -2.6236   -0.9228   -2.2057 C.ar    1  LIG1        0.0153
      6 C          -3.2086    1.0675   -2.9492 C.ar    1  LIG1        0.0842
      7 C          -9.7790   -3.8215    0.8974 C.ar    1  LIG1        0.0352
      8 C         -12.3593   -4.8821    0.8938 C.ar    1  LIG1        0.2632
      9 C          -3.6501   -0.3898   -1.4621 C.ar    1  LIG1        0.0558
     10 C          -8.0721   -2.0201    1.2871 C.2     1  LIG1        0.3550
     11 C          -4.3570   -0.9973   -0.2768 C.3     1  LIG1       -0.0069
     12 C          -5.4473   -0.0706    0.2617 C.3     1  LIG1       -0.0233
     13 C          -6.1314   -0.6623    1.4862 C.3     1  LIG1        0.0584
     14 N          -4.0098    0.8491   -1.9302 N.ar    1  LIG1       -0.2445
     15 N          -2.3520    0.0219   -3.1547 N.ar    1  LIG1       -0.3103
     16 N          -8.4886   -3.2912    0.8991 N.am    1  LIG1       -0.2610
     17 N         -13.6726   -5.4218    0.8920 N.pl3   1  LIG1        0.1022
     18 O          -8.7733   -1.1082    1.7080 O.2     1  LIG1       -0.2421
     19 O         -13.8445   -6.6017    0.5010 O.2     1  LIG1        0.0314
     20 O         -14.6255   -4.7043    1.2816 O.2     1  LIG1       -0.5803
     21 O          -6.7155   -1.9200    1.1278 O.3     1  LIG1       -0.3001
     22 H          -9.1641   -5.7470    0.1312 H       1  LIG1        0.0645
     23 H         -10.6976   -2.0209    1.6631 H       1  LIG1        0.0645
     24 H         -11.4383   -6.6831    0.1277 H       1  LIG1        0.0695
     25 H         -12.9728   -2.9547    1.6604 H       1  LIG1        0.0695
     26 H          -2.0792   -1.8546   -2.1513 H       1  LIG1        0.0809
     27 H          -3.1968    1.9507   -3.5722 H       1  LIG1        0.1013
     28 H          -3.6303   -1.2160    0.5162 H       1  LIG1        0.0333
     29 H          -4.7967   -1.9618   -0.5619 H       1  LIG1        0.0333
     30 H          -6.1995    0.1300   -0.5127 H       1  LIG1        0.0294
     31 H          -5.0261    0.9101    0.5197 H       1  LIG1        0.0294
     32 H          -5.4109   -0.8304    2.2931 H       1  LIG1        0.0574
     33 H          -6.9246   -0.0004    1.8481 H       1  LIG1        0.0574
     34 H          -1.6462   -0.0402   -3.8763 H       1  LIG1        0.1531
     35 H          -7.7486   -3.9208    0.5713 H       1  LIG1        0.1581
@<TRIPOS>BOND
     1     1     3   ar
     2     1     7   ar
     3     2     4   ar
     4     2     7   ar
     5     3     8   ar
     6     4     8   ar
     7     5     9   ar
     8     5    15   ar
     9     6    14   ar
    10     6    15   ar
    11     7    16    1
    12     8    17    1
    13     9    11    1
    14     9    14   ar
    15    10    16   am
    16    10    18    2
    17    10    21    1
    18    11    12    1
    19    12    13    1
    20    13    21    1
    21    17    19    2
    22    17    20    2
    23     1    22    1
    24     2    23    1
    25     3    24    1
    26     4    25    1
    27     5    26    1
    28     6    27    1
    29    11    28    1
    30    11    29    1
    31    12    30    1
    32    12    31    1
    33    13    32    1
    34    13    33    1
    35    15    34    1
    36    16    35    1
