@<TRIPOS>MOLECULE
ChEBML5324
 47 50 0 0 0
SMALL
USER_CHARGES

@<TRIPOS>ATOM
      1 C          -2.4273    0.7146   -3.9477 C.ar    1  LIG1       -0.0622
      2 C          -0.4214   -0.8252    3.0893 C.ar    1  LIG1       -0.0622
      3 C         -12.6240   -4.7818    1.2342 C.ar    1  LIG1       -0.0615
      4 C          -1.8874   -0.4474   -3.3966 C.ar    1  LIG1       -0.0616
      5 C          -3.2866    1.5114   -3.1910 C.ar    1  LIG1       -0.0616
      6 C          -1.0408    0.4082    2.8873 C.ar    1  LIG1       -0.0616
      7 C          -0.7752   -1.9207    2.3018 C.ar    1  LIG1       -0.0616
      8 C         -11.7089   -5.5803    0.5511 C.ar    1  LIG1       -0.0603
      9 C         -12.2192   -3.5878    1.8422 C.ar    1  LIG1       -0.0530
     10 C          -2.2069   -0.8129   -2.0889 C.ar    1  LIG1       -0.0544
     11 C          -3.6061    1.1460   -1.8833 C.ar    1  LIG1       -0.0544
     12 C          -2.0143    0.5459    1.8979 C.ar    1  LIG1       -0.0544
     13 C          -1.7487   -1.7830    1.3123 C.ar    1  LIG1       -0.0544
     14 C         -10.3637   -5.2131    0.4534 C.ar    1  LIG1       -0.0402
     15 C         -10.1260   -2.0829    2.2397 C.ar    1  LIG1       -0.0262
     16 C         -10.8681   -3.1970    1.7571 C.ar    1  LIG1       -0.0022
     17 C          -3.0662   -0.0161   -1.3322 C.ar    1  LIG1       -0.0180
     18 C          -2.3683   -0.5497    1.1103 C.ar    1  LIG1       -0.0180
     19 C          -9.9734   -4.0170    1.0662 C.ar    1  LIG1        0.0378
     20 C          -8.8196   -2.2450    1.8400 C.ar    1  LIG1        0.0945
     21 C          -4.6921   -0.6264    0.4066 C.2     1  LIG1       -0.0589
     22 C          -3.4058   -0.4035    0.0558 C.2     1  LIG1       -0.0136
     23 C          -7.7039   -1.3869    2.0862 C.2     1  LIG1        0.2575
     24 C          -5.2248   -1.0227    1.7505 C.3     1  LIG1        0.0305
     25 N          -8.7374   -3.4143    1.1326 N.ar    1  LIG1       -0.3101
     26 N          -6.4482   -1.7703    1.5680 N.am    1  LIG1       -0.3066
     27 O          -7.8226   -0.3323    2.7596 O.2     1  LIG1       -0.2704
     28 H          -2.1774    0.9999   -4.9654 H       1  LIG1        0.0622
     29 H           0.3376   -0.9321    3.8587 H       1  LIG1        0.0622
     30 H         -13.6651   -5.0880    1.2958 H       1  LIG1        0.0623
     31 H          -1.2173   -1.0674   -3.9851 H       1  LIG1        0.0623
     32 H          -3.7060    2.4168   -3.6196 H       1  LIG1        0.0623
     33 H          -0.7646    1.2617    3.4996 H       1  LIG1        0.0623
     34 H          -0.2921   -2.8808    2.4581 H       1  LIG1        0.0623
     35 H         -12.0452   -6.5036    0.0868 H       1  LIG1        0.0623
     36 H         -12.9432   -2.9744    2.3712 H       1  LIG1        0.0629
     37 H          -1.7782   -1.7216   -1.6731 H       1  LIG1        0.0629
     38 H          -4.2774    1.7775   -1.3062 H       1  LIG1        0.0629
     39 H          -2.4884    1.5137    1.7524 H       1  LIG1        0.0629
     40 H          -2.0138   -2.6464    0.7066 H       1  LIG1        0.0629
     41 H          -9.6515   -5.8351   -0.0780 H       1  LIG1        0.0642
     42 H         -10.5113   -1.2531    2.8174 H       1  LIG1        0.0651
     43 H          -5.4704   -0.4895   -0.3455 H       1  LIG1        0.0599
     44 H          -5.4608   -0.1294    2.3370 H       1  LIG1        0.0512
     45 H          -4.5392   -1.6370    2.3385 H       1  LIG1        0.0512
     46 H          -7.8930   -3.7851    0.7186 H       1  LIG1        0.1529
     47 H          -6.3779   -2.6594    1.0839 H       1  LIG1        0.1500
@<TRIPOS>BOND
     1     1     4   ar
     2     1     5   ar
     3     2     6   ar
     4     2     7   ar
     5     3     8   ar
     6     3     9   ar
     7     4    10   ar
     8     5    11   ar
     9     6    12   ar
    10     7    13   ar
    11     8    14   ar
    12     9    16   ar
    13    10    17   ar
    14    11    17   ar
    15    12    18   ar
    16    13    18   ar
    17    14    19   ar
    18    15    16   ar
    19    15    20   ar
    20    16    19   ar
    21    17    22    1
    22    18    22    1
    23    19    25   ar
    24    20    23    1
    25    20    25   ar
    26    21    22    2
    27    21    24    1
    28    23    26   am
    29    23    27    2
    30    24    26    1
    31     1    28    1
    32     2    29    1
    33     3    30    1
    34     4    31    1
    35     5    32    1
    36     6    33    1
    37     7    34    1
    38     8    35    1
    39     9    36    1
    40    10    37    1
    41    11    38    1
    42    12    39    1
    43    13    40    1
    44    14    41    1
    45    15    42    1
    46    21    43    1
    47    24    44    1
    48    24    45    1
    49    25    46    1
    50    26    47    1
