@<TRIPOS>MOLECULE
ChEBML212903
 36 38 0 0 0
SMALL
USER_CHARGES

@<TRIPOS>ATOM
      1 C         -10.1554   -5.2591    0.6740 C.ar    1  LIG1       -0.0391
      2 C         -11.4881   -5.5933    0.7577 C.ar    1  LIG1       -0.0461
      3 C         -12.0168   -3.4603    1.7057 C.ar    1  LIG1       -0.0387
      4 C          -9.9525   -1.9268    1.9864 C.ar    1  LIG1       -0.0262
      5 C         -10.6657   -3.0971    1.6308 C.ar    1  LIG1       -0.0011
      6 C          -9.7266   -4.0079    1.1090 C.ar    1  LIG1        0.0379
      7 C         -12.4133   -4.6929    1.2731 C.ar    1  LIG1        0.0182
      8 C          -8.6432   -2.1335    1.6880 C.ar    1  LIG1        0.0947
      9 C          -7.5572   -1.1648    1.9002 C.2     1  LIG1        0.2602
     10 C          -5.2465   -0.4311    1.5237 C.3     1  LIG1        0.0539
     11 C          -6.2679   -2.2696    0.1291 C.3     1  LIG1        0.0539
     12 C          -4.7392    0.1942    0.2200 C.3     1  LIG1       -0.0183
     13 C          -5.7124   -1.5576   -1.1087 C.3     1  LIG1       -0.0183
     14 C          -3.8756   -0.2776   -1.9661 C.3     1  LIG1       -0.0453
     15 N          -8.4956   -3.3965    1.1482 N.ar    1  LIG1       -0.3101
     16 N          -6.4043   -1.2835    1.2124 N.am    1  LIG1       -0.2863
     17 N          -4.4650   -0.8675   -0.7567 N.4     1  LIG1        0.2462
     18 O          -7.6995   -0.2565    2.6967 O.2     1  LIG1       -0.2701
     19 BR        -14.2377   -5.1799    1.3764 Br      1  LIG1       -0.0508
     20 H          -9.4441   -5.9655    0.2720 H       1  LIG1        0.0643
     21 H         -11.8181   -6.5647    0.4200 H       1  LIG1        0.0635
     22 H         -12.7425   -2.7673    2.1050 H       1  LIG1        0.0641
     23 H         -10.3736   -1.0307    2.4177 H       1  LIG1        0.0651
     24 H          -4.4573   -1.0347    1.9718 H       1  LIG1        0.0525
     25 H          -5.5468    0.3563    2.2149 H       1  LIG1        0.0525
     26 H          -5.5818   -3.0588    0.4366 H       1  LIG1        0.0525
     27 H          -7.2435   -2.6976   -0.1015 H       1  LIG1        0.0525
     28 H          -3.8239    0.7523    0.4167 H       1  LIG1        0.0831
     29 H          -5.4973    0.8680   -0.1790 H       1  LIG1        0.0831
     30 H          -6.4411   -0.8307   -1.4675 H       1  LIG1        0.0831
     31 H          -5.5141   -2.2902   -1.8910 H       1  LIG1        0.0831
     32 H          -4.5761    0.4356   -2.4007 H       1  LIG1        0.0777
     33 H          -2.9495    0.2350   -1.7061 H       1  LIG1        0.0777
     34 H          -3.6642   -1.0657   -2.6887 H       1  LIG1        0.0777
     35 H          -7.6605   -3.7883    0.8481 H       1  LIG1        0.1529
     36 H          -3.8170   -1.5297   -0.3569 H       1  LIG1        0.2001
@<TRIPOS>BOND
     1     1     2   ar
     2     1     6   ar
     3     2     7   ar
     4     3     5   ar
     5     3     7   ar
     6     4     5   ar
     7     4     8   ar
     8     5     6   ar
     9     6    15   ar
    10     7    19    1
    11     8     9    1
    12     8    15   ar
    13     9    16   am
    14     9    18    2
    15    10    12    1
    16    10    16    1
    17    11    13    1
    18    11    16    1
    19    12    17    1
    20    13    17    1
    21    14    17    1
    22     1    20    1
    23     2    21    1
    24     3    22    1
    25     4    23    1
    26    10    24    1
    27    10    25    1
    28    11    26    1
    29    11    27    1
    30    12    28    1
    31    12    29    1
    32    13    30    1
    33    13    31    1
    34    14    32    1
    35    14    33    1
    36    14    34    1
    37    15    35    1
    38    17    36    1
