@<TRIPOS>MOLECULE
ChEBML310431
 56 61 0 0 0
SMALL
USER_CHARGES

@<TRIPOS>ATOM
      1 C         -12.6072   -4.6547    1.4360 C.ar    1  LIG1       -0.0615
      2 C         -11.7634   -5.5059    0.7252 C.ar    1  LIG1       -0.0603
      3 C          -1.6577    1.3015   -3.5934 C.ar    1  LIG1       -0.0575
      4 C          -3.5432   -3.0756   -2.0174 C.ar    1  LIG1       -0.0431
      5 C         -12.1281   -3.4530    1.9700 C.ar    1  LIG1       -0.0530
      6 C          -3.9029   -1.7522   -1.8073 C.ar    1  LIG1       -0.0486
      7 C          -1.3218   -0.0409   -3.7854 C.ar    1  LIG1       -0.0356
      8 C         -10.4176   -5.1852    0.5256 C.ar    1  LIG1       -0.0402
      9 C          -2.7485    1.6386   -2.8016 C.ar    1  LIG1       -0.0310
     10 C          -9.9700   -2.0015    2.1717 C.ar    1  LIG1       -0.0314
     11 C          -2.4456   -3.3194   -2.8178 C.ar    1  LIG1        0.0275
     12 C         -10.7748   -3.1084    1.7817 C.ar    1  LIG1       -0.0024
     13 C          -3.1628   -0.7186   -2.3971 C.ar    1  LIG1        0.0305
     14 C          -2.0565   -1.0681   -3.1995 C.ar    1  LIG1        0.0728
     15 C          -9.9525   -3.9806    1.0653 C.ar    1  LIG1        0.0377
     16 C          -3.5009    0.6316   -2.2039 C.ar    1  LIG1        0.0846
     17 C          -8.6985   -2.2192    1.6937 C.ar    1  LIG1        0.0343
     18 C          -7.6010   -0.1477    1.8252 C.2     1  LIG1       -0.0323
     19 C          -7.4912   -1.4918    1.7591 C.2     1  LIG1       -0.0196
     20 C          -6.1081   -2.1357    1.7499 C.3     1  LIG1        0.0163
     21 C          -5.8517    0.7093    3.3594 C.3     1  LIG1       -0.0016
     22 C          -5.0055   -0.5671    3.4592 C.3     1  LIG1       -0.0048
     23 C          -6.3649    0.7182    1.9187 C.3     1  LIG1       -0.0033
     24 C          -4.9529   -1.1458    2.0369 C.3     1  LIG1       -0.0183
     25 C          -4.0248    0.9413    0.9071 C.3     1  LIG1       -0.0088
     26 C          -4.2959    1.8160   -0.3011 C.3     1  LIG1        0.0923
     27 N          -1.7051   -2.3516   -3.4052 N.ar    1  LIG1       -0.2561
     28 N          -8.6978   -3.4153    1.0275 N.ar    1  LIG1       -0.3142
     29 N          -5.2146    0.0672    1.1618 N.4     1  LIG1        0.2550
     30 O          -4.5712    0.9968   -1.4296 O.3     1  LIG1       -0.3399
     31 H         -13.6500   -4.9260    1.5777 H       1  LIG1        0.0623
     32 H         -12.1573   -6.4340    0.3189 H       1  LIG1        0.0623
     33 H          -1.0653    2.0806   -4.0642 H       1  LIG1        0.0624
     34 H          -4.1035   -3.8875   -1.5689 H       1  LIG1        0.0639
     35 H         -12.7970   -2.7990    2.5220 H       1  LIG1        0.0629
     36 H          -4.7655   -1.5425   -1.1795 H       1  LIG1        0.0631
     37 H          -0.4633   -0.2788   -4.4107 H       1  LIG1        0.0645
     38 H          -9.7607   -5.8474   -0.0281 H       1  LIG1        0.0642
     39 H          -3.0072    2.6834   -2.6549 H       1  LIG1        0.0650
     40 H         -10.2921   -1.1393    2.7408 H       1  LIG1        0.0649
     41 H          -2.1170   -4.3342   -3.0163 H       1  LIG1        0.0840
     42 H          -8.5663    0.3512    1.8423 H       1  LIG1        0.0638
     43 H          -6.0774   -2.9467    2.4878 H       1  LIG1        0.0374
     44 H          -5.9504   -2.5919    0.7638 H       1  LIG1        0.0374
     45 H          -6.6547    0.7235    4.1047 H       1  LIG1        0.0329
     46 H          -5.2233    1.5878    3.5491 H       1  LIG1        0.0329
     47 H          -3.9974   -0.3123    3.8063 H       1  LIG1        0.0326
     48 H          -5.4233   -1.2786    4.1797 H       1  LIG1        0.0326
     49 H          -6.5381    1.7151    1.5032 H       1  LIG1        0.0900
     50 H          -3.9813   -1.5802    1.7806 H       1  LIG1        0.0855
     51 H          -3.8743    1.5299    1.8165 H       1  LIG1        0.0839
     52 H          -3.1751    0.2739    0.7407 H       1  LIG1        0.0839
     53 H          -5.1741    2.4427   -0.1166 H       1  LIG1        0.0628
     54 H          -3.4437    2.4638   -0.5308 H       1  LIG1        0.0628
     55 H          -7.8973   -3.8315    0.5706 H       1  LIG1        0.1528
     56 H          -5.5481   -0.2392    0.2369 H       1  LIG1        0.2014
@<TRIPOS>BOND
     1     1     2   ar
     2     1     5   ar
     3     2     8   ar
     4     3     7   ar
     5     3     9   ar
     6     4     6   ar
     7     4    11   ar
     8     5    12   ar
     9     6    13   ar
    10     7    14   ar
    11     8    15   ar
    12     9    16   ar
    13    10    12   ar
    14    10    17   ar
    15    11    27   ar
    16    12    15   ar
    17    13    14   ar
    18    13    16   ar
    19    14    27   ar
    20    15    28   ar
    21    16    30    1
    22    17    19    1
    23    17    28   ar
    24    18    19    2
    25    18    23    1
    26    19    20    1
    27    20    24    1
    28    21    22    1
    29    21    23    1
    30    22    24    1
    31    23    29    1
    32    24    29    1
    33    25    26    1
    34    25    29    1
    35    26    30    1
    36     1    31    1
    37     2    32    1
    38     3    33    1
    39     4    34    1
    40     5    35    1
    41     6    36    1
    42     7    37    1
    43     8    38    1
    44     9    39    1
    45    10    40    1
    46    11    41    1
    47    18    42    1
    48    20    43    1
    49    20    44    1
    50    21    45    1
    51    21    46    1
    52    22    47    1
    53    22    48    1
    54    23    49    1
    55    24    50    1
    56    25    51    1
    57    25    52    1
    58    26    53    1
    59    26    54    1
    60    28    55    1
    61    29    56    1
