@<TRIPOS>MOLECULE
ChEBML300199
 53 56 0 0 0
SMALL
USER_CHARGES

@<TRIPOS>ATOM
      1 C         -10.2006   -5.1456    0.4375 C.ar    1  LIG1       -0.0387
      2 C         -11.5311   -5.5364    0.6137 C.ar    1  LIG1       -0.0416
      3 C         -12.0056   -3.5411    1.9139 C.ar    1  LIG1       -0.0343
      4 C          -9.9222   -1.9943    2.1802 C.ar    1  LIG1       -0.0262
      5 C         -10.6690   -3.1265    1.7498 C.ar    1  LIG1       -0.0007
      6 C          -9.7991   -3.9367    1.0168 C.ar    1  LIG1        0.0379
      7 C         -12.4213   -4.7481    1.3401 C.ar    1  LIG1        0.0413
      8 C          -8.6374   -2.1364    1.7092 C.ar    1  LIG1        0.0945
      9 C          -7.4818   -1.2207    1.8920 C.2     1  LIG1        0.2576
     10 C          -4.5375   -0.6070   -0.3502 C.2     1  LIG1        0.2321
     11 C          -1.1359    1.8797    1.9950 C.3     1  LIG1       -0.0515
     12 C          -1.8670    3.0455    1.3236 C.3     1  LIG1       -0.0515
     13 C          -3.8430   -0.8512   -3.2626 C.3     1  LIG1       -0.0515
     14 C          -3.1066   -2.0142   -2.5917 C.3     1  LIG1       -0.0515
     15 C          -1.5616    0.6237    1.2392 C.3     1  LIG1       -0.0344
     16 C          -2.6966    2.4314    0.1989 C.3     1  LIG1       -0.0344
     17 C          -3.0843    0.4126   -2.8665 C.3     1  LIG1       -0.0344
     18 C          -1.9434   -1.3906   -1.8250 C.3     1  LIG1       -0.0344
     19 C          -2.9210    0.9964    0.6598 C.3     1  LIG1        0.0257
     20 C          -2.4146    0.0326   -1.5514 C.3     1  LIG1        0.0257
     21 C          -5.3578   -0.3959    0.9101 C.3     1  LIG1        0.0887
     22 N          -8.5729   -3.3109    1.0087 N.ar    1  LIG1       -0.3101
     23 N          -6.5397   -1.2085    0.8683 N.am    1  LIG1       -0.3013
     24 N          -3.3271    0.1239   -0.4034 N.am    1  LIG1       -0.2944
     25 O          -7.4034   -0.5511    2.9186 O.2     1  LIG1       -0.2704
     26 O          -4.9292   -1.3688   -1.2383 O.2     1  LIG1       -0.2756
     27 CL        -14.0542   -5.2628    1.5341 Cl      1  LIG1       -0.0843
     28 H          -9.5083   -5.7606   -0.1278 H       1  LIG1        0.0643
     29 H         -11.8608   -6.4737    0.1706 H       1  LIG1        0.0639
     30 H         -12.6987   -2.9255    2.4813 H       1  LIG1        0.0645
     31 H         -10.2898   -1.1658    2.7712 H       1  LIG1        0.0651
     32 H          -0.0494    2.0104    1.9696 H       1  LIG1        0.0267
     33 H          -1.4349    1.8114    3.0473 H       1  LIG1        0.0267
     34 H          -2.5187    3.5425    2.0513 H       1  LIG1        0.0267
     35 H          -1.1699    3.7970    0.9396 H       1  LIG1        0.0267
     36 H          -3.8832   -0.9669   -4.3504 H       1  LIG1        0.0267
     37 H          -4.8755   -0.8065   -2.8976 H       1  LIG1        0.0267
     38 H          -3.7834   -2.5333   -1.9033 H       1  LIG1        0.0267
     39 H          -2.7539   -2.7491   -3.3222 H       1  LIG1        0.0267
     40 H          -0.8411    0.4044    0.4408 H       1  LIG1        0.0285
     41 H          -1.6112   -0.2551    1.8896 H       1  LIG1        0.0285
     42 H          -3.6350    2.9700    0.0341 H       1  LIG1        0.0285
     43 H          -2.1304    2.4592   -0.7407 H       1  LIG1        0.0285
     44 H          -2.3365    0.6563   -3.6320 H       1  LIG1        0.0285
     45 H          -3.7458    1.2785   -2.7638 H       1  LIG1        0.0285
     46 H          -1.7108   -1.9386   -0.9065 H       1  LIG1        0.0285
     47 H          -1.0406   -1.3933   -2.4490 H       1  LIG1        0.0285
     48 H          -3.6945    0.9597    1.4360 H       1  LIG1        0.0506
     49 H          -1.5586    0.6878   -1.3509 H       1  LIG1        0.0506
     50 H          -4.7834   -0.6929    1.7914 H       1  LIG1        0.0567
     51 H          -5.6775    0.6466    0.9864 H       1  LIG1        0.0567
     52 H          -7.7464   -3.6699    0.5505 H       1  LIG1        0.1529
     53 H          -6.6485   -1.8427    0.0774 H       1  LIG1        0.1503
@<TRIPOS>BOND
     1     1     2   ar
     2     1     6   ar
     3     2     7   ar
     4     3     5   ar
     5     3     7   ar
     6     4     5   ar
     7     4     8   ar
     8     5     6   ar
     9     6    22   ar
    10     7    27    1
    11     8     9    1
    12     8    22   ar
    13     9    23   am
    14     9    25    2
    15    10    21    1
    16    10    24   am
    17    10    26    2
    18    11    12    1
    19    11    15    1
    20    12    16    1
    21    13    14    1
    22    13    17    1
    23    14    18    1
    24    15    19    1
    25    16    19    1
    26    17    20    1
    27    18    20    1
    28    19    24    1
    29    20    24    1
    30    21    23    1
    31     1    28    1
    32     2    29    1
    33     3    30    1
    34     4    31    1
    35    11    32    1
    36    11    33    1
    37    12    34    1
    38    12    35    1
    39    13    36    1
    40    13    37    1
    41    14    38    1
    42    14    39    1
    43    15    40    1
    44    15    41    1
    45    16    42    1
    46    16    43    1
    47    17    44    1
    48    17    45    1
    49    18    46    1
    50    18    47    1
    51    19    48    1
    52    20    49    1
    53    21    50    1
    54    21    51    1
    55    22    52    1
    56    23    53    1
