@<TRIPOS>MOLECULE
ChEBML839842
 45 49 0 0 0
SMALL
USER_CHARGES

@<TRIPOS>ATOM
      1 C          -3.6693    1.3617   -2.9359 C.ar    1  LIG1       -0.0615
      2 C          -2.4863    0.7816   -3.3896 C.ar    1  LIG1       -0.0603
      3 C          -4.3076    0.8818   -1.7865 C.ar    1  LIG1       -0.0527
      4 C         -12.3549   -4.1120    1.8817 C.ar    1  LIG1       -0.0502
      5 C          -1.9045   -0.2935   -2.7117 C.ar    1  LIG1       -0.0402
      6 C         -12.6292   -5.2551    1.1372 C.ar    1  LIG1       -0.0311
      7 C         -10.8364   -2.3057    2.5049 C.ar    1  LIG1       -0.0384
      8 C         -10.4398   -5.0986    0.1369 C.ar    1  LIG1       -0.0053
      9 C          -3.1489   -1.8953    0.2886 C.ar    1  LIG1       -0.0028
     10 C         -11.1182   -3.4581    1.7554 C.ar    1  LIG1        0.0012
     11 C          -3.7397   -0.2012   -1.0863 C.ar    1  LIG1        0.0007
     12 C          -9.5862   -1.7050    2.3321 C.ar    1  LIG1        0.0592
     13 C          -4.1033   -0.9258    0.0832 C.ar    1  LIG1       -0.0158
     14 C         -10.1349   -3.9548    0.8673 C.ar    1  LIG1        0.0752
     15 C          -2.5536   -0.7628   -1.5642 C.ar    1  LIG1        0.0375
     16 C         -11.6699   -5.7488    0.2634 C.ar    1  LIG1        0.0768
     17 C          -8.7090   -2.2848    1.4341 C.ar    1  LIG1        0.1593
     18 C          -8.8889   -0.5962    2.8358 C.ar    1  LIG1        0.1448
     19 C          -6.3912   -1.6995    0.7109 C.2     1  LIG1        0.2444
     20 C         -13.2022   -7.4803   -0.2934 C.3     1  LIG1        0.0422
     21 C          -5.3103   -0.6859    0.9455 C.3     1  LIG1        0.0538
     22 N          -8.9326   -3.3852    0.6944 N.ar    1  LIG1       -0.2298
     23 N          -7.6690   -0.4706    2.3104 N.ar    1  LIG1       -0.1564
     24 N          -2.2183   -1.7889   -0.7099 N.ar    1  LIG1       -0.3203
     25 N          -7.5633   -1.5134    1.4489 N.ar    1  LIG1       -0.1397
     26 N          -9.4374    0.2350    3.7603 N.pl3   1  LIG1       -0.3413
     27 O          -6.3105   -2.6449   -0.0600 O.2     1  LIG1       -0.2747
     28 O         -11.9267   -6.8659   -0.4707 O.3     1  LIG1       -0.3492
     29 H          -4.1022    2.1969   -3.4797 H       1  LIG1        0.0623
     30 H          -2.0076    1.1701   -4.2847 H       1  LIG1        0.0623
     31 H          -5.2287    1.3455   -1.4451 H       1  LIG1        0.0630
     32 H         -13.1144   -3.7344    2.5630 H       1  LIG1        0.0630
     33 H          -0.9842   -0.7451   -3.0662 H       1  LIG1        0.0642
     34 H         -13.5889   -5.7527    1.2437 H       1  LIG1        0.0650
     35 H         -11.5622   -1.8906    3.1983 H       1  LIG1        0.0638
     36 H          -9.7023   -5.5040   -0.5551 H       1  LIG1        0.0673
     37 H          -3.0469   -2.6504    1.0559 H       1  LIG1        0.0792
     38 H         -13.2762   -8.3601   -0.9372 H       1  LIG1        0.0535
     39 H         -13.9899   -6.7652   -0.5436 H       1  LIG1        0.0535
     40 H         -13.3078   -7.7854    0.7504 H       1  LIG1        0.0535
     41 H          -5.0231   -0.7104    2.0007 H       1  LIG1        0.0416
     42 H          -5.7178    0.3122    0.7627 H       1  LIG1        0.0416
     43 H          -1.4029   -2.3780   -0.8067 H       1  LIG1        0.1522
     44 H         -10.4008    0.1122    4.0918 H       1  LIG1        0.1442
     45 H          -8.9452    1.0716    4.0926 H       1  LIG1        0.1442
@<TRIPOS>BOND
     1     1     2   ar
     2     1     3   ar
     3     2     5   ar
     4     3    11   ar
     5     4     6   ar
     6     4    10   ar
     7     5    15   ar
     8     6    16   ar
     9     7    10   ar
    10     7    12   ar
    11     8    14   ar
    12     8    16   ar
    13     9    13   ar
    14     9    24   ar
    15    10    14   ar
    16    11    13   ar
    17    11    15   ar
    18    12    17   ar
    19    12    18   ar
    20    13    21    1
    21    14    22   ar
    22    15    24   ar
    23    16    28    1
    24    17    22   ar
    25    17    25   ar
    26    18    23   ar
    27    18    26    1
    28    19    21    1
    29    19    25   am
    30    19    27    2
    31    20    28    1
    32    23    25   ar
    33     1    29    1
    34     2    30    1
    35     3    31    1
    36     4    32    1
    37     5    33    1
    38     6    34    1
    39     7    35    1
    40     8    36    1
    41     9    37    1
    42    20    38    1
    43    20    39    1
    44    20    40    1
    45    21    41    1
    46    21    42    1
    47    24    43    1
    48    26    44    1
    49    26    45    1
