@<TRIPOS>MOLECULE
ChEBML300328
 47 49 0 0 0
SMALL
USER_CHARGES

@<TRIPOS>ATOM
      1 C         -10.3427   -5.1744    0.4638 C.ar    1  LIG1       -0.0387
      2 C         -11.6798   -5.5304    0.6621 C.ar    1  LIG1       -0.0416
      3 C         -12.0854   -3.5144    1.9536 C.ar    1  LIG1       -0.0343
      4 C          -9.9603   -2.0182    2.1778 C.ar    1  LIG1       -0.0262
      5 C         -10.7413   -3.1346    1.7670 C.ar    1  LIG1       -0.0007
      6 C          -9.9026   -3.9717    1.0279 C.ar    1  LIG1        0.0379
      7 C         -12.5394   -4.7147    1.3951 C.ar    1  LIG1        0.0413
      8 C          -8.6864   -2.1961    1.6896 C.ar    1  LIG1        0.0945
      9 C          -7.5059   -1.3083    1.8486 C.2     1  LIG1        0.2576
     10 C          -4.6307   -0.6120   -0.0625 C.2     1  LIG1        0.2319
     11 C          -2.3924    0.0849   -3.6542 C.3     1  LIG1       -0.0515
     12 C          -3.1493    1.4115   -3.5448 C.3     1  LIG1       -0.0515
     13 C          -2.5723   -0.6151   -2.3096 C.3     1  LIG1       -0.0344
     14 C          -3.7446    1.4428   -2.1395 C.3     1  LIG1       -0.0344
     15 C          -2.8226    0.5319   -1.3379 C.3     1  LIG1        0.0254
     16 C          -5.0993   -1.0018    1.3283 C.3     1  LIG1        0.0887
     17 C          -2.6550    0.4182    1.1184 C.3     1  LIG1        0.0377
     18 C          -1.6869   -0.7067    1.4359 C.3     1  LIG1        0.0589
     19 N          -8.6615   -3.3769    0.9972 N.ar    1  LIG1       -0.3101
     20 N          -6.3286   -1.7372    1.2436 N.am    1  LIG1       -0.3013
     21 N          -3.4046    0.0933   -0.1028 N.am    1  LIG1       -0.2952
     22 O          -7.6154   -0.2762    2.5054 O.2     1  LIG1       -0.2704
     23 O          -5.2956   -0.9075   -1.0589 O.2     1  LIG1       -0.2756
     24 O          -0.8026   -0.8927    0.3380 O.3     1  LIG1       -0.3947
     25 CL        -14.1815   -5.1869    1.6165 Cl      1  LIG1       -0.0843
     26 H          -9.6742   -5.8106   -0.1066 H       1  LIG1        0.0643
     27 H         -12.0392   -6.4625    0.2311 H       1  LIG1        0.0639
     28 H         -12.7545   -2.8774    2.5260 H       1  LIG1        0.0645
     29 H         -10.2984   -1.1766    2.7677 H       1  LIG1        0.0651
     30 H          -2.7669   -0.5319   -4.4773 H       1  LIG1        0.0267
     31 H          -1.3304    0.2785   -3.8443 H       1  LIG1        0.0267
     32 H          -2.4537    2.2472   -3.6837 H       1  LIG1        0.0267
     33 H          -3.9275    1.5011   -4.3093 H       1  LIG1        0.0267
     34 H          -3.4365   -1.2904   -2.3513 H       1  LIG1        0.0285
     35 H          -1.6986   -1.2137   -2.0335 H       1  LIG1        0.0285
     36 H          -3.7900    2.4572   -1.7309 H       1  LIG1        0.0285
     37 H          -4.7683    1.0482   -2.1588 H       1  LIG1        0.0285
     38 H          -1.8850    1.0484   -1.1008 H       1  LIG1        0.0506
     39 H          -4.3607   -1.6470    1.8110 H       1  LIG1        0.0567
     40 H          -5.2900   -0.1096    1.9302 H       1  LIG1        0.0567
     41 H          -3.3722    0.5660    1.9320 H       1  LIG1        0.0493
     42 H          -2.1109    1.3517    0.9464 H       1  LIG1        0.0493
     43 H          -2.2356   -1.6412    1.5898 H       1  LIG1        0.0580
     44 H          -1.0956   -0.4884    2.3312 H       1  LIG1        0.0580
     45 H          -7.8510   -3.7599    0.5300 H       1  LIG1        0.1529
     46 H          -6.3072   -2.6391    0.7687 H       1  LIG1        0.1503
     47 H          -0.2037   -1.6170    0.5811 H       1  LIG1        0.2101
@<TRIPOS>BOND
     1     1     2   ar
     2     1     6   ar
     3     2     7   ar
     4     3     5   ar
     5     3     7   ar
     6     4     5   ar
     7     4     8   ar
     8     5     6   ar
     9     6    19   ar
    10     7    25    1
    11     8     9    1
    12     8    19   ar
    13     9    20   am
    14     9    22    2
    15    10    16    1
    16    10    21   am
    17    10    23    2
    18    11    12    1
    19    11    13    1
    20    12    14    1
    21    13    15    1
    22    14    15    1
    23    15    21    1
    24    16    20    1
    25    17    18    1
    26    17    21    1
    27    18    24    1
    28     1    26    1
    29     2    27    1
    30     3    28    1
    31     4    29    1
    32    11    30    1
    33    11    31    1
    34    12    32    1
    35    12    33    1
    36    13    34    1
    37    13    35    1
    38    14    36    1
    39    14    37    1
    40    15    38    1
    41    16    39    1
    42    16    40    1
    43    17    41    1
    44    17    42    1
    45    18    43    1
    46    18    44    1
    47    19    45    1
    48    20    46    1
    49    24    47    1
