@<TRIPOS>MOLECULE
ChEBML1066935
 30 32 0 0 0
SMALL
USER_CHARGES

@<TRIPOS>ATOM
      1 C          -5.0685   -0.0289   -1.5969 C.ar    1  LIG1       -0.0435
      2 C          -5.6882   -0.9393   -0.7481 C.ar    1  LIG1       -0.0555
      3 C         -10.2961   -5.2298    0.5641 C.ar    1  LIG1       -0.0387
      4 C         -11.6510   -5.5622    0.6517 C.ar    1  LIG1       -0.0416
      5 C         -12.1402   -3.4995    1.8361 C.ar    1  LIG1       -0.0343
      6 C         -10.0211   -2.0235    2.2041 C.ar    1  LIG1       -0.0279
      7 C          -4.2882    0.9632   -1.0255 C.ar    1  LIG1        0.0268
      8 C          -4.7109    0.1968    1.0987 C.ar    1  LIG1        0.0304
      9 C         -10.7791   -3.1430    1.7600 C.ar    1  LIG1       -0.0008
     10 C          -5.5112   -0.8312    0.6268 C.ar    1  LIG1       -0.0218
     11 C          -9.8903   -4.0146    1.1271 C.ar    1  LIG1        0.0379
     12 C         -12.5605   -4.7120    1.2773 C.ar    1  LIG1        0.0413
     13 C          -8.7112   -2.2334    1.8393 C.ar    1  LIG1        0.0750
     14 C          -7.5813   -1.3892    2.0671 C.2     1  LIG1        0.1808
     15 C          -6.1697   -1.8038    1.5742 C.3     1  LIG1        0.0389
     16 N          -4.0928    1.1000    0.3052 N.ar    1  LIG1       -0.2644
     17 N          -8.6422   -3.4368    1.1900 N.ar    1  LIG1       -0.3115
     18 O          -7.6900   -0.2879    2.6729 O.2     1  LIG1       -0.2923
     19 CL        -14.2230   -5.1559    1.3640 Cl      1  LIG1       -0.0843
     20 H          -5.1921   -0.0941   -2.6719 H       1  LIG1        0.0639
     21 H          -6.3065   -1.7290   -1.1664 H       1  LIG1        0.0627
     22 H          -9.5889   -5.8930    0.0772 H       1  LIG1        0.0643
     23 H         -11.9845   -6.5035    0.2198 H       1  LIG1        0.0639
     24 H         -12.8483   -2.8355    2.3249 H       1  LIG1        0.0645
     25 H         -10.3981   -1.1586    2.7337 H       1  LIG1        0.0651
     26 H          -3.7839    1.6979   -1.6446 H       1  LIG1        0.0839
     27 H          -4.5360    0.3311    2.1617 H       1  LIG1        0.0842
     28 H          -6.2574   -2.7767    1.0763 H       1  LIG1        0.0401
     29 H          -5.5277   -1.9299    2.4541 H       1  LIG1        0.0401
     30 H          -7.7991   -3.8451    0.8106 H       1  LIG1        0.1529
@<TRIPOS>BOND
     1     1     2   ar
     2     1     7   ar
     3     2    10   ar
     4     3     4   ar
     5     3    11   ar
     6     4    12   ar
     7     5     9   ar
     8     5    12   ar
     9     6     9   ar
    10     6    13   ar
    11     7    16   ar
    12     8    10   ar
    13     8    16   ar
    14     9    11   ar
    15    10    15    1
    16    11    17   ar
    17    12    19    1
    18    13    14    1
    19    13    17   ar
    20    14    15    1
    21    14    18    2
    22     1    20    1
    23     2    21    1
    24     3    22    1
    25     4    23    1
    26     5    24    1
    27     6    25    1
    28     7    26    1
    29     8    27    1
    30    15    28    1
    31    15    29    1
    32    17    30    1
