@<TRIPOS>MOLECULE
ChEBML95176
 29 31 0 0 0
SMALL
USER_CHARGES

@<TRIPOS>ATOM
      1 C          -9.1153   -0.1009    3.5074 C.ar    1  LIG1       -0.0615
      2 C          -7.8214   -0.3223    3.0418 C.ar    1  LIG1       -0.0603
      3 C         -10.1649   -0.9471    3.1321 C.ar    1  LIG1       -0.0524
      4 C          -7.5369   -1.3926    2.1896 C.ar    1  LIG1       -0.0402
      5 C         -10.3368   -4.9802    0.2097 C.ar    1  LIG1       -0.0383
      6 C         -11.6968   -5.2879    0.3013 C.ar    1  LIG1       -0.0388
      7 C         -12.0795   -3.4003    1.7781 C.ar    1  LIG1       -0.0309
      8 C          -9.9030   -2.0344    2.2723 C.ar    1  LIG1        0.0049
      9 C         -10.7104   -3.0690    1.7014 C.ar    1  LIG1        0.0067
     10 C          -8.5968   -2.2299    1.8230 C.ar    1  LIG1        0.0383
     11 C          -9.8740   -3.8664    0.9199 C.ar    1  LIG1        0.0384
     12 C         -12.5572   -4.5111    1.0734 C.ar    1  LIG1        0.0332
     13 C         -14.5765   -5.9044    0.5209 C.2     1  LIG1        0.2128
     14 C         -16.0470   -5.9171    0.8551 C.3     1  LIG1        0.0130
     15 N          -8.6074   -3.3392    1.0109 N.ar    1  LIG1       -0.3139
     16 N         -13.9113   -4.8421    1.1465 N.am    1  LIG1       -0.2856
     17 O         -14.0924   -6.7579   -0.2155 O.2     1  LIG1       -0.2776
     18 H          -9.3134    0.7380    4.1690 H       1  LIG1        0.0623
     19 H          -7.0199    0.3464    3.3452 H       1  LIG1        0.0623
     20 H         -11.1685   -0.7610    3.5038 H       1  LIG1        0.0630
     21 H          -6.5287   -1.5645    1.8275 H       1  LIG1        0.0642
     22 H          -9.6670   -5.5854   -0.3921 H       1  LIG1        0.0643
     23 H         -12.0759   -6.1498   -0.2436 H       1  LIG1        0.0643
     24 H         -12.7542   -2.7964    2.3797 H       1  LIG1        0.0650
     25 H         -16.5983   -5.3212    0.1223 H       1  LIG1        0.0328
     26 H         -16.2042   -5.4900    1.8497 H       1  LIG1        0.0328
     27 H         -16.4224   -6.9446    0.8487 H       1  LIG1        0.0328
     28 H          -7.7946   -3.7165    0.5437 H       1  LIG1        0.1528
     29 H         -14.4973   -4.2350    1.7306 H       1  LIG1        0.1556
@<TRIPOS>BOND
     1     1     2   ar
     2     1     3   ar
     3     2     4   ar
     4     3     8   ar
     5     4    10   ar
     6     5     6   ar
     7     5    11   ar
     8     6    12   ar
     9     7     9   ar
    10     7    12   ar
    11     8     9   ar
    12     8    10   ar
    13     9    11   ar
    14    10    15   ar
    15    11    15   ar
    16    12    16    1
    17    13    14    1
    18    13    16   am
    19    13    17    2
    20     1    18    1
    21     2    19    1
    22     3    20    1
    23     4    21    1
    24     5    22    1
    25     6    23    1
    26     7    24    1
    27    14    25    1
    28    14    26    1
    29    14    27    1
    30    15    28    1
    31    16    29    1
