@<TRIPOS>MOLECULE
ChEBML208433
 49 52 0 0 0
SMALL
USER_CHARGES

@<TRIPOS>ATOM
      1 C         -12.1419   -5.3862    1.3493 C.ar    1  LIG1       -0.0600
      2 C         -11.1660   -5.9624    0.5330 C.ar    1  LIG1       -0.0602
      3 C          -1.7387   -0.4985   -2.4043 C.ar    1  LIG1       -0.0572
      4 C         -11.9153   -4.1618    1.9903 C.ar    1  LIG1       -0.0344
      5 C          -9.9310   -5.3387    0.3273 C.ar    1  LIG1       -0.0385
      6 C          -2.7868   -0.6373   -1.4946 C.ar    1  LIG1       -0.0406
      7 C          -4.0088    1.1061   -2.6366 C.ar    1  LIG1       -0.0377
      8 C          -1.8255    0.4426   -3.4302 C.ar    1  LIG1       -0.0480
      9 C          -2.9606    1.2449   -3.5463 C.ar    1  LIG1       -0.0463
     10 C         -10.6800   -3.5212    1.7950 C.ar    1  LIG1        0.0864
     11 C          -9.7273   -4.1202    0.9757 C.ar    1  LIG1        0.0575
     12 C          -3.9220    0.1651   -1.6107 C.ar    1  LIG1        0.0292
     13 C          -9.0016   -2.2014    1.8040 C.ar    1  LIG1        0.1434
     14 C          -4.5576   -0.4123    0.6335 C.3     1  LIG1        0.0509
     15 C          -6.1691   -0.6023   -1.2539 C.3     1  LIG1        0.0509
     16 C          -5.7191   -0.2902    1.6107 C.3     1  LIG1       -0.0177
     17 C          -7.3276   -0.4850   -0.2714 C.3     1  LIG1       -0.0177
     18 C          -0.6900    0.5736   -4.3914 C.3     1  LIG1       -0.0395
     19 C          -3.0752    2.2603   -4.6356 C.3     1  LIG1       -0.0394
     20 C          -8.0490   -1.0672    2.0436 C.3     1  LIG1        0.0233
     21 N         -10.2115   -2.3302    2.3004 N.ar    1  LIG1       -0.2303
     22 N          -8.6642   -3.2542    0.9998 N.ar    1  LIG1       -0.2969
     23 N          -4.9618    0.0265   -0.7087 N.pl3   1  LIG1       -0.3203
     24 N          -6.9082   -1.0398    1.0655 N.4     1  LIG1        0.2537
     25 H         -13.0924   -5.8951    1.4892 H       1  LIG1        0.0623
     26 H         -11.3688   -6.9147    0.0489 H       1  LIG1        0.0623
     27 H          -0.8580   -1.1275   -2.3053 H       1  LIG1        0.0626
     28 H         -12.6808   -3.7222    2.6216 H       1  LIG1        0.0646
     29 H          -9.1728   -5.7840   -0.3068 H       1  LIG1        0.0643
     30 H          -2.7079   -1.3732   -0.6981 H       1  LIG1        0.0642
     31 H          -4.8935    1.7326   -2.7272 H       1  LIG1        0.0645
     32 H          -3.7261    0.2031    0.9988 H       1  LIG1        0.0524
     33 H          -4.2071   -1.4520    0.5943 H       1  LIG1        0.0524
     34 H          -5.9709   -1.6596   -1.4740 H       1  LIG1        0.0524
     35 H          -6.4578   -0.1178   -2.1949 H       1  LIG1        0.0524
     36 H          -5.4603   -0.7339    2.5775 H       1  LIG1        0.0831
     37 H          -6.0228    0.7532    1.7542 H       1  LIG1        0.0831
     38 H          -7.6258    0.5585   -0.1173 H       1  LIG1        0.0831
     39 H          -8.1889   -1.0657   -0.6175 H       1  LIG1        0.0831
     40 H          -0.8360   -0.0976   -5.2456 H       1  LIG1        0.0280
     41 H          -0.6036    1.6013   -4.7652 H       1  LIG1        0.0280
     42 H           0.2655    0.3270   -3.9120 H       1  LIG1        0.0280
     43 H          -2.6682    3.2221   -4.3028 H       1  LIG1        0.0280
     44 H          -2.5307    1.9420   -5.5331 H       1  LIG1        0.0280
     45 H          -4.1213    2.4070   -4.9322 H       1  LIG1        0.0280
     46 H          -8.5564   -0.1001    1.9621 H       1  LIG1        0.0899
     47 H          -7.6050   -1.1281    3.0431 H       1  LIG1        0.0899
     48 H          -7.7885   -3.3753    0.5084 H       1  LIG1        0.1542
     49 H          -6.6211   -2.0177    0.9210 H       1  LIG1        0.2009
@<TRIPOS>BOND
     1     1     2   ar
     2     1     4   ar
     3     2     5   ar
     4     3     6   ar
     5     3     8   ar
     6     4    10   ar
     7     5    11   ar
     8     6    12   ar
     9     7     9   ar
    10     7    12   ar
    11     8     9   ar
    12     8    18    1
    13     9    19    1
    14    10    11   ar
    15    10    21   ar
    16    11    22   ar
    17    12    23    1
    18    13    20    1
    19    13    21   ar
    20    13    22   ar
    21    14    16    1
    22    14    23    1
    23    15    17    1
    24    15    23    1
    25    16    24    1
    26    17    24    1
    27    20    24    1
    28     1    25    1
    29     2    26    1
    30     3    27    1
    31     4    28    1
    32     5    29    1
    33     6    30    1
    34     7    31    1
    35    14    32    1
    36    14    33    1
    37    15    34    1
    38    15    35    1
    39    16    36    1
    40    16    37    1
    41    17    38    1
    42    17    39    1
    43    18    40    1
    44    18    41    1
    45    18    42    1
    46    19    43    1
    47    19    44    1
    48    19    45    1
    49    20    46    1
    50    20    47    1
    51    22    48    1
    52    24    49    1
