@<TRIPOS>MOLECULE
ChEBML418035
 60 65 0 0 0
SMALL
USER_CHARGES

@<TRIPOS>ATOM
      1 C          -0.2325   -4.2474   -1.6948 C.ar    1  LIG1       -0.0622
      2 C           0.0396   -3.1314   -0.9035 C.ar    1  LIG1       -0.0615
      3 C          -1.2182   -4.1807   -2.6795 C.ar    1  LIG1       -0.0615
      4 C          -4.2818    3.3016   -3.2868 C.ar    1  LIG1       -0.0600
      5 C          -5.2310    2.8687   -2.3581 C.ar    1  LIG1       -0.0602
      6 C          -0.6741   -1.9486   -1.0970 C.ar    1  LIG1       -0.0515
      7 C          -1.9318   -2.9979   -2.8729 C.ar    1  LIG1       -0.0515
      8 C          -3.1713    2.5100   -3.6059 C.ar    1  LIG1       -0.0344
      9 C          -5.1066    1.6324   -1.7157 C.ar    1  LIG1       -0.0383
     10 C         -10.2434   -5.4077    1.1012 C.ar    1  LIG1       -0.0376
     11 C         -11.6117   -5.6857    1.0354 C.ar    1  LIG1       -0.0299
     12 C         -12.1637   -3.3568    1.4461 C.ar    1  LIG1       -0.0226
     13 C         -10.0491   -1.8579    1.7393 C.ar    1  LIG1       -0.0261
     14 C         -10.7896   -3.0524    1.5167 C.ar    1  LIG1        0.0004
     15 C          -1.6598   -1.8818   -2.0817 C.ar    1  LIG1        0.0152
     16 C          -3.0304    1.2651   -2.9699 C.ar    1  LIG1        0.0868
     17 C          -9.8631   -4.0828    1.3429 C.ar    1  LIG1        0.0380
     18 C          -3.9928    0.8608   -2.0490 C.ar    1  LIG1        0.0605
     19 C         -12.5588   -4.6777    1.2050 C.ar    1  LIG1        0.0753
     20 C          -8.7122   -2.1803    1.6975 C.ar    1  LIG1        0.0947
     21 C          -2.3988   -0.6555   -2.2826 C.ar    1  LIG1        0.1326
     22 C          -7.5823   -1.3138    1.8664 C.2     1  LIG1        0.2598
     23 C          -4.3118   -0.5009    0.7114 C.3     1  LIG1       -0.0181
     24 C          -5.6362   -1.6047   -1.1569 C.3     1  LIG1       -0.0181
     25 C          -5.1041   -1.3350    1.7171 C.3     1  LIG1        0.0162
     26 C          -6.3843   -2.4117   -0.0975 C.3     1  LIG1        0.0162
     27 C          -4.2341   -1.2099   -0.6543 C.3     1  LIG1        0.0323
     28 C         -14.8053   -3.9056    1.3171 C.3     1  LIG1        0.0422
     29 N          -2.0482    0.3104   -3.1020 N.ar    1  LIG1       -0.2306
     30 N          -8.6100   -3.5243    1.4577 N.ar    1  LIG1       -0.3101
     31 N          -3.5634   -0.3708   -1.6255 N.ar    1  LIG1       -0.2800
     32 N          -6.4188   -1.6787    1.1749 N.am    1  LIG1       -0.2966
     33 O          -7.6627   -0.3167    2.5817 O.2     1  LIG1       -0.2702
     34 O         -13.8859   -4.9803    1.1354 O.3     1  LIG1       -0.3493
     35 H           0.3235   -5.1681   -1.5445 H       1  LIG1        0.0622
     36 H           0.8070   -3.1837   -0.1367 H       1  LIG1        0.0623
     37 H          -1.4293   -5.0493   -3.2964 H       1  LIG1        0.0623
     38 H          -4.4059    4.2675   -3.7699 H       1  LIG1        0.0623
     39 H          -6.0832    3.5039   -2.1298 H       1  LIG1        0.0623
     40 H          -0.4484   -1.0865   -0.4738 H       1  LIG1        0.0630
     41 H          -2.6978   -2.9622   -3.6440 H       1  LIG1        0.0630
     42 H          -2.4394    2.8554   -4.3289 H       1  LIG1        0.0646
     43 H          -5.8441    1.2973   -0.9952 H       1  LIG1        0.0643
     44 H          -9.5068   -6.1929    0.9688 H       1  LIG1        0.0643
     45 H         -11.9340   -6.7075    0.8487 H       1  LIG1        0.0651
     46 H         -12.9084   -2.5764    1.5765 H       1  LIG1        0.0657
     47 H         -10.4551   -0.8700    1.9116 H       1  LIG1        0.0651
     48 H          -4.7951    0.4778    0.5906 H       1  LIG1        0.0302
     49 H          -3.3035   -0.3104    1.0979 H       1  LIG1        0.0302
     50 H          -5.5567   -2.1875   -2.0824 H       1  LIG1        0.0302
     51 H          -6.2098   -0.7001   -1.3990 H       1  LIG1        0.0302
     52 H          -4.5811   -2.2734    1.9354 H       1  LIG1        0.0470
     53 H          -5.2003   -0.7854    2.6585 H       1  LIG1        0.0470
     54 H          -7.3881   -2.6461   -0.4597 H       1  LIG1        0.0470
     55 H          -5.8749   -3.3648    0.0883 H       1  LIG1        0.0470
     56 H          -3.6108   -2.1074   -0.5656 H       1  LIG1        0.0511
     57 H         -15.8279   -4.2826    1.2378 H       1  LIG1        0.0535
     58 H         -14.6277   -3.1405    0.5571 H       1  LIG1        0.0535
     59 H         -14.6549   -3.4730    2.3090 H       1  LIG1        0.0535
     60 H          -7.7421   -4.0360    1.3758 H       1  LIG1        0.1529
@<TRIPOS>BOND
     1     1     2   ar
     2     1     3   ar
     3     2     6   ar
     4     3     7   ar
     5     4     5   ar
     6     4     8   ar
     7     5     9   ar
     8     6    15   ar
     9     7    15   ar
    10     8    16   ar
    11     9    18   ar
    12    10    11   ar
    13    10    17   ar
    14    11    19   ar
    15    12    14   ar
    16    12    19   ar
    17    13    14   ar
    18    13    20   ar
    19    14    17   ar
    20    15    21    1
    21    16    18   ar
    22    16    29   ar
    23    17    30   ar
    24    18    31   ar
    25    19    34    1
    26    20    22    1
    27    20    30   ar
    28    21    29   ar
    29    21    31   ar
    30    22    32   am
    31    22    33    2
    32    23    25    1
    33    23    27    1
    34    24    26    1
    35    24    27    1
    36    25    32    1
    37    26    32    1
    38    27    31    1
    39    28    34    1
    40     1    35    1
    41     2    36    1
    42     3    37    1
    43     4    38    1
    44     5    39    1
    45     6    40    1
    46     7    41    1
    47     8    42    1
    48     9    43    1
    49    10    44    1
    50    11    45    1
    51    12    46    1
    52    13    47    1
    53    23    48    1
    54    23    49    1
    55    24    50    1
    56    24    51    1
    57    25    52    1
    58    25    53    1
    59    26    54    1
    60    26    55    1
    61    27    56    1
    62    28    57    1
    63    28    58    1
    64    28    59    1
    65    30    60    1
