@<TRIPOS>MOLECULE
ChEBML1067097
 30 32 0 0 0
SMALL
USER_CHARGES

@<TRIPOS>ATOM
      1 C         -12.4105   -4.7484    1.2295 C.ar    1  LIG1       -0.0615
      2 C         -11.4734   -5.5735    0.6109 C.ar    1  LIG1       -0.0603
      3 C          -4.0881   -0.4265   -1.3064 C.ar    1  LIG1       -0.0589
      4 C          -5.1000   -0.2650   -2.2463 C.ar    1  LIG1       -0.0438
      5 C         -12.0260   -3.5290    1.7991 C.ar    1  LIG1       -0.0530
      6 C         -10.1259   -5.2085    0.5415 C.ar    1  LIG1       -0.0402
      7 C          -4.3971   -0.8934   -0.0337 C.ar    1  LIG1       -0.0401
      8 C          -9.9474   -2.0049    2.2000 C.ar    1  LIG1       -0.0280
      9 C          -6.3944   -0.5818   -1.8667 C.ar    1  LIG1        0.0271
     10 C         -10.6730   -3.1398    1.7413 C.ar    1  LIG1       -0.0023
     11 C          -9.7560   -3.9868    1.1152 C.ar    1  LIG1        0.0377
     12 C          -8.6285   -2.1817    1.8502 C.ar    1  LIG1        0.0751
     13 C          -5.7230   -1.1820    0.2470 C.ar    1  LIG1        0.0481
     14 C          -7.5219   -1.3120    2.0958 C.2     1  LIG1        0.1823
     15 C          -6.0950   -1.6905    1.6182 C.3     1  LIG1        0.0547
     16 N          -6.7331   -1.0378   -0.6399 N.ar    1  LIG1       -0.2608
     17 N          -8.5230   -3.3798    1.1961 N.ar    1  LIG1       -0.3115
     18 O          -7.6640   -0.2167    2.7055 O.2     1  LIG1       -0.2922
     19 H         -13.4528   -5.0535    1.2702 H       1  LIG1        0.0623
     20 H         -11.7941   -6.5163    0.1754 H       1  LIG1        0.0623
     21 H          -3.0607   -0.1891   -1.5655 H       1  LIG1        0.0624
     22 H          -4.8824    0.0974   -3.2444 H       1  LIG1        0.0639
     23 H         -12.7670   -2.8950    2.2779 H       1  LIG1        0.0629
     24 H          -9.3964   -5.8513    0.0603 H       1  LIG1        0.0642
     25 H          -3.6170   -1.0239    0.7086 H       1  LIG1        0.0642
     26 H         -10.3515   -1.1521    2.7292 H       1  LIG1        0.0651
     27 H          -7.2194   -0.4734   -2.5628 H       1  LIG1        0.0839
     28 H          -6.0157   -2.7841    1.6223 H       1  LIG1        0.0417
     29 H          -5.3781   -1.2959    2.3481 H       1  LIG1        0.0417
     30 H          -7.6656   -3.7663    0.8257 H       1  LIG1        0.1529
@<TRIPOS>BOND
     1     1     2   ar
     2     1     5   ar
     3     2     6   ar
     4     3     4   ar
     5     3     7   ar
     6     4     9   ar
     7     5    10   ar
     8     6    11   ar
     9     7    13   ar
    10     8    10   ar
    11     8    12   ar
    12     9    16   ar
    13    10    11   ar
    14    11    17   ar
    15    12    14    1
    16    12    17   ar
    17    13    15    1
    18    13    16   ar
    19    14    15    1
    20    14    18    2
    21     1    19    1
    22     2    20    1
    23     3    21    1
    24     4    22    1
    25     5    23    1
    26     6    24    1
    27     7    25    1
    28     8    26    1
    29     9    27    1
    30    15    28    1
    31    15    29    1
    32    17    30    1
