@<TRIPOS>MOLECULE
ChEBML716559
 50 53 0 0 0
SMALL
USER_CHARGES

@<TRIPOS>ATOM
      1 C          -2.1838    0.6782   -3.4821 C.ar    1  LIG1       -0.0429
      2 C          -1.9014   -0.5716   -2.9422 C.ar    1  LIG1       -0.0446
      3 C         -11.4596   -5.8146    0.6559 C.ar    1  LIG1       -0.0482
      4 C         -12.2683   -3.7873    1.6918 C.ar    1  LIG1       -0.0482
      5 C         -10.1788   -5.2670    0.5840 C.ar    1  LIG1       -0.0402
      6 C         -10.9874   -3.2397    1.6199 C.ar    1  LIG1       -0.0402
      7 C          -3.2394    1.3947   -2.9417 C.ar    1  LIG1        0.0291
      8 C          -7.6664   -1.5734    3.8534 C.ar    1  LIG1        0.1174
      9 C          -2.6723   -1.0598   -1.8931 C.ar    1  LIG1        0.0771
     10 C          -7.0076   -1.6611    1.2359 C.ar    1  LIG1        0.0157
     11 C         -12.5044   -5.0747    1.2097 C.ar    1  LIG1        0.0556
     12 C          -9.9427   -3.9795    1.0660 C.ar    1  LIG1        0.0314
     13 C          -6.4038   -0.7602    2.1142 C.ar    1  LIG1        0.0505
     14 C          -3.7060   -0.2655   -1.4237 C.ar    1  LIG1        0.1325
     15 C          -7.9687   -2.4899    1.8059 C.ar    1  LIG1        0.1285
     16 C          -2.3717   -2.3723   -1.3378 C.2     1  LIG1        0.2439
     17 C          -6.7078   -1.7636   -0.2362 C.3     1  LIG1       -0.0067
     18 C          -5.3650    0.2452    1.6775 C.3     1  LIG1        0.0059
     19 C          -5.2241   -1.9922   -0.5414 C.3     1  LIG1        0.0171
     20 C          -4.1489   -0.3872    0.9962 C.3     1  LIG1        0.0184
     21 C         -13.8742   -5.6592    1.2867 C.3     1  LIG1        0.4160
     22 N          -4.0106    0.9535   -1.9227 N.ar    1  LIG1       -0.2406
     23 N          -6.7265   -0.7088    3.4318 N.ar    1  LIG1       -0.2408
     24 N          -8.3198   -2.4756    3.1073 N.ar    1  LIG1       -0.2211
     25 N          -4.4710   -0.7406   -0.3925 N.pl3   1  LIG1       -0.3145
     26 N          -1.4670   -2.4352   -0.2833 N.am    1  LIG1       -0.3250
     27 N          -8.6528   -3.4285    0.9956 N.pl3   1  LIG1       -0.2993
     28 O          -2.8904   -3.4030   -1.7985 O.2     1  LIG1       -0.2719
     29 F         -13.9592   -6.9242    0.7782 F       1  LIG1       -0.1661
     30 F         -14.3574   -5.7546    2.5607 F       1  LIG1       -0.1661
     31 F         -14.7975   -4.9258    0.5991 F       1  LIG1       -0.1661
     32 H          -1.5972    1.0779   -4.3014 H       1  LIG1        0.0639
     33 H          -1.0791   -1.1555   -3.3473 H       1  LIG1        0.0633
     34 H         -11.6347   -6.8178    0.2771 H       1  LIG1        0.0629
     35 H         -13.0764   -3.2028    2.1233 H       1  LIG1        0.0629
     36 H          -9.3721   -5.8515    0.1492 H       1  LIG1        0.0642
     37 H         -10.8150   -2.2352    1.9979 H       1  LIG1        0.0642
     38 H          -3.5006    2.3747   -3.3275 H       1  LIG1        0.0840
     39 H          -7.9224   -1.5347    4.9048 H       1  LIG1        0.1063
     40 H          -7.2502   -2.5926   -0.7023 H       1  LIG1        0.0334
     41 H          -7.0818   -0.8558   -0.7266 H       1  LIG1        0.0334
     42 H          -5.8475    0.9945    1.0386 H       1  LIG1        0.0348
     43 H          -5.0092    0.7818    2.5666 H       1  LIG1        0.0348
     44 H          -4.8035   -2.7775    0.0995 H       1  LIG1        0.0472
     45 H          -5.1170   -2.3447   -1.5752 H       1  LIG1        0.0472
     46 H          -3.3215    0.3337    0.9918 H       1  LIG1        0.0473
     47 H          -3.7943   -1.2659    1.5491 H       1  LIG1        0.0473
     48 H          -1.0487   -1.5789    0.0637 H       1  LIG1        0.1458
     49 H          -1.2167   -3.3200    0.1461 H       1  LIG1        0.1458
     50 H          -8.0996   -3.7630    0.2152 H       1  LIG1        0.1543
@<TRIPOS>BOND
     1     1     2   ar
     2     1     7   ar
     3     2     9   ar
     4     3     5   ar
     5     3    11   ar
     6     4     6   ar
     7     4    11   ar
     8     5    12   ar
     9     6    12   ar
    10     7    22   ar
    11     8    23   ar
    12     8    24   ar
    13     9    14   ar
    14     9    16    1
    15    10    13   ar
    16    10    15   ar
    17    10    17    1
    18    11    21    1
    19    12    27    1
    20    13    18    1
    21    13    23   ar
    22    14    22   ar
    23    14    25    1
    24    15    24   ar
    25    15    27    1
    26    16    26   am
    27    16    28    2
    28    17    19    1
    29    18    20    1
    30    19    25    1
    31    20    25    1
    32    21    29    1
    33    21    30    1
    34    21    31    1
    35     1    32    1
    36     2    33    1
    37     3    34    1
    38     4    35    1
    39     5    36    1
    40     6    37    1
    41     7    38    1
    42     8    39    1
    43    17    40    1
    44    17    41    1
    45    18    42    1
    46    18    43    1
    47    19    44    1
    48    19    45    1
    49    20    46    1
    50    20    47    1
    51    26    48    1
    52    26    49    1
    53    27    50    1
