@<TRIPOS>MOLECULE
ChEBML234194
 45 48 0 0 0
SMALL
USER_CHARGES

@<TRIPOS>ATOM
      1 C         -12.4320   -6.2969   -0.7478 C.1     1  LIG1        0.0992
      2 C          -2.0376    0.8445   -3.5708 C.ar    1  LIG1       -0.0621
      3 C          -1.9069   -0.4725   -3.1307 C.ar    1  LIG1       -0.0604
      4 C          -2.9785    1.6874   -2.9794 C.ar    1  LIG1       -0.0604
      5 C         -12.7625   -4.4083    0.7616 C.ar    1  LIG1       -0.0437
      6 C         -12.2676   -3.3550    1.5390 C.ar    1  LIG1       -0.0517
      7 C          -2.7173   -0.9468   -2.0992 C.ar    1  LIG1       -0.0409
      8 C          -3.7889    1.2132   -1.9479 C.ar    1  LIG1       -0.0409
      9 C         -10.5162   -5.0221    0.0673 C.ar    1  LIG1       -0.0224
     10 C         -10.0487   -2.1803    2.2470 C.ar    1  LIG1       -0.0305
     11 C         -11.8984   -5.2278    0.0379 C.ar    1  LIG1        0.0539
     12 C         -10.8776   -3.1282    1.5841 C.ar    1  LIG1       -0.0024
     13 C         -10.0357   -3.9653    0.8487 C.ar    1  LIG1        0.0389
     14 C          -3.6583   -0.1039   -1.5078 C.ar    1  LIG1        0.0289
     15 C          -8.7440   -2.4553    1.9079 C.ar    1  LIG1        0.0524
     16 C          -5.3123   -1.7162   -0.8453 C.3     1  LIG1        0.0509
     17 C          -5.0976    0.4691    0.3269 C.3     1  LIG1        0.0509
     18 C          -5.9603   -2.3161    0.3953 C.3     1  LIG1       -0.0177
     19 C          -5.7512   -0.1346    1.5636 C.3     1  LIG1       -0.0177
     20 C          -7.4643   -1.7848    2.3125 C.3     1  LIG1        0.0052
     21 N         -12.8650   -7.1645   -1.3855 N.1     1  LIG1       -0.1924
     22 N          -8.7464   -3.5334    1.0640 N.ar    1  LIG1       -0.3134
     23 N          -4.4622   -0.5740   -0.4846 N.pl3   1  LIG1       -0.3203
     24 N          -6.6938   -1.2336    1.1457 N.4     1  LIG1        0.2525
     25 H          -1.4065    1.2138   -4.3742 H       1  LIG1        0.0622
     26 H          -1.1745   -1.1286   -3.5913 H       1  LIG1        0.0623
     27 H          -3.0801    2.7132   -3.3223 H       1  LIG1        0.0623
     28 H         -13.8374   -4.5758    0.7343 H       1  LIG1        0.0637
     29 H         -12.9520   -2.7237    2.0984 H       1  LIG1        0.0630
     30 H          -2.6077   -1.9748   -1.7637 H       1  LIG1        0.0642
     31 H          -4.5186    1.8793   -1.4944 H       1  LIG1        0.0642
     32 H          -9.8325   -5.6535   -0.4923 H       1  LIG1        0.0656
     33 H         -10.3746   -1.3837    2.9022 H       1  LIG1        0.0648
     34 H          -4.7143   -2.4926   -1.3385 H       1  LIG1        0.0524
     35 H          -6.0857   -1.3939   -1.5548 H       1  LIG1        0.0524
     36 H          -5.8493    1.0000   -0.2721 H       1  LIG1        0.0524
     37 H          -4.3520    1.2062    0.6495 H       1  LIG1        0.0524
     38 H          -6.6907   -3.0831    0.1185 H       1  LIG1        0.0831
     39 H          -5.2163   -2.7452    1.0764 H       1  LIG1        0.0831
     40 H          -5.0103   -0.5746    2.2411 H       1  LIG1        0.0831
     41 H          -6.3362    0.6200    2.0995 H       1  LIG1        0.0831
     42 H          -7.6542   -0.9447    2.9891 H       1  LIG1        0.0882
     43 H          -6.7971   -2.4842    2.8279 H       1  LIG1        0.0882
     44 H          -7.9227   -3.9539    0.6557 H       1  LIG1        0.1527
     45 H          -7.3861   -0.8231    0.5038 H       1  LIG1        0.2009
@<TRIPOS>BOND
     1     1    11    1
     2     1    21    3
     3     2     3   ar
     4     2     4   ar
     5     3     7   ar
     6     4     8   ar
     7     5     6   ar
     8     5    11   ar
     9     6    12   ar
    10     7    14   ar
    11     8    14   ar
    12     9    11   ar
    13     9    13   ar
    14    10    12   ar
    15    10    15   ar
    16    12    13   ar
    17    13    22   ar
    18    14    23    1
    19    15    20    1
    20    15    22   ar
    21    16    18    1
    22    16    23    1
    23    17    19    1
    24    17    23    1
    25    18    24    1
    26    19    24    1
    27    20    24    1
    28     2    25    1
    29     3    26    1
    30     4    27    1
    31     5    28    1
    32     6    29    1
    33     7    30    1
    34     8    31    1
    35     9    32    1
    36    10    33    1
    37    16    34    1
    38    16    35    1
    39    17    36    1
    40    17    37    1
    41    18    38    1
    42    18    39    1
    43    19    40    1
    44    19    41    1
    45    20    42    1
    46    20    43    1
    47    22    44    1
    48    24    45    1
