@<TRIPOS>MOLECULE
ChEBML205169
 84 88 0 0 0
SMALL
USER_CHARGES

@<TRIPOS>ATOM
      1 C          -0.2191    1.3214    0.1704 C.ar    1  LIG1       -0.0418
      2 C         -10.2158   -5.3917    1.0552 C.ar    1  LIG1       -0.0383
      3 C          -1.0244    1.9841   -0.7459 C.ar    1  LIG1       -0.0360
      4 C         -11.5398   -5.7467    1.1713 C.ar    1  LIG1       -0.0377
      5 C         -12.1123   -3.5242    1.8985 C.ar    1  LIG1       -0.0304
      6 C         -10.0737   -1.9371    2.0159 C.ar    1  LIG1       -0.0261
      7 C          -0.5148    0.0177    0.5133 C.ar    1  LIG1        0.0292
      8 C         -10.7667   -3.1499    1.7839 C.ar    1  LIG1       -0.0003
      9 C          -9.8128   -4.0940    1.3582 C.ar    1  LIG1        0.0379
     10 C         -12.4901   -4.8159    1.5927 C.ar    1  LIG1        0.0453
     11 C          -2.1040    1.3027   -1.2921 C.ar    1  LIG1        0.0672
     12 C          -8.7605   -2.1510    1.7394 C.ar    1  LIG1        0.0947
     13 C          -2.3449   -0.0144   -0.8930 C.ar    1  LIG1        0.1414
     14 C          -7.6918   -1.1470    1.8493 C.2     1  LIG1        0.2598
     15 C          -4.5273   -0.1106    0.6770 C.3     1  LIG1       -0.0185
     16 C          -5.4776   -1.8923   -0.7971 C.3     1  LIG1       -0.0185
     17 C          -5.2891   -0.6785    1.8786 C.3     1  LIG1        0.0162
     18 C          -6.2501   -2.4805    0.3877 C.3     1  LIG1        0.0162
     19 C         -15.9619   -2.9017    0.1755 C.3     1  LIG1        0.0657
     20 C         -14.0422   -3.3785   -1.3914 C.3     1  LIG1        0.0657
     21 C         -16.7389   -2.3656   -1.0315 C.3     1  LIG1       -0.0170
     22 C         -14.9133   -2.8219   -2.5280 C.3     1  LIG1       -0.0170
     23 C          -4.1860   -1.2472   -0.2892 C.3     1  LIG1        0.0271
     24 C          -2.4259   -1.4310   -3.5429 C.3     1  LIG1       -0.0494
     25 C          -1.6399    3.1806   -3.8727 C.3     1  LIG1       -0.0470
     26 C          -3.9081    3.9626   -3.1756 C.3     1  LIG1       -0.0470
     27 C         -16.5518   -1.1681   -3.0998 C.3     1  LIG1       -0.0453
     28 C          -2.8714   -1.8661   -2.1453 C.3     1  LIG1        0.0104
     29 C          -2.6248    3.2744   -2.7058 C.3     1  LIG1        0.0142
     30 N          -1.5509   -0.6064   -0.0166 N.ar    1  LIG1       -0.2394
     31 N          -8.5906   -3.4599    1.3328 N.ar    1  LIG1       -0.3101
     32 N          -6.4560   -1.4249    1.3887 N.am    1  LIG1       -0.2966
     33 N         -14.9303   -3.8315   -0.3096 N.3     1  LIG1       -0.2549
     34 N          -2.9412    1.9274   -2.2243 N.pl3   1  LIG1       -0.3393
     35 N         -13.8328   -5.1941    1.7062 N.pl3   1  LIG1       -0.2474
     36 N          -3.4265   -0.7113   -1.4267 N.pl3   1  LIG1       -0.3114
     37 N         -15.7996   -1.7792   -1.9958 N.4     1  LIG1        0.2462
     38 O          -7.9230   -0.0655    2.3561 O.2     1  LIG1       -0.2702
     39 O         -13.9892   -6.0859   -0.5787 O.2     1  LIG1       -0.4642
     40 O         -16.0636   -5.7034    0.8093 O.2     1  LIG1       -0.4642
     41 S         -14.7688   -5.3427    0.3481 S.O2    1  LIG1       -0.1184
     42 H           0.6307    1.8214    0.6111 H       1  LIG1        0.0639
     43 H          -9.4885   -6.1201    0.7284 H       1  LIG1        0.0643
     44 H          -0.8139    3.0046   -1.0302 H       1  LIG1        0.0644
     45 H         -11.8464   -6.7548    0.9345 H       1  LIG1        0.0643
     46 H         -12.8497   -2.8058    2.2248 H       1  LIG1        0.0650
     47 H         -10.5104   -1.0085    2.3524 H       1  LIG1        0.0651
     48 H           0.1104   -0.4997    1.2260 H       1  LIG1        0.0840
     49 H          -3.6078    0.3636    1.0202 H       1  LIG1        0.0302
     50 H          -5.1485    0.6260    0.1673 H       1  LIG1        0.0302
     51 H          -6.0898   -1.1391   -1.2929 H       1  LIG1        0.0302
     52 H          -5.2344   -2.6864   -1.5032 H       1  LIG1        0.0302
     53 H          -4.6377   -1.3469    2.4415 H       1  LIG1        0.0470
     54 H          -5.6206    0.1380    2.5201 H       1  LIG1        0.0470
     55 H          -5.6771   -3.2958    0.8290 H       1  LIG1        0.0470
     56 H          -7.2157   -2.8530    0.0456 H       1  LIG1        0.0470
     57 H         -16.6427   -3.4270    0.8453 H       1  LIG1        0.0538
     58 H         -15.4895   -2.0738    0.7041 H       1  LIG1        0.0538
     59 H         -13.3792   -2.5980   -1.0183 H       1  LIG1        0.0538
     60 H         -13.4531   -4.2193   -1.7578 H       1  LIG1        0.0538
     61 H         -17.2834   -3.1825   -1.5051 H       1  LIG1        0.0831
     62 H         -17.4435   -1.6027   -0.7004 H       1  LIG1        0.0831
     63 H         -15.5130   -3.6249   -2.9564 H       1  LIG1        0.0831
     64 H         -14.2726   -2.3952   -3.2998 H       1  LIG1        0.0831
     65 H          -3.5856   -1.9955    0.2282 H       1  LIG1        0.0506
     66 H          -1.9523   -2.2709   -4.0511 H       1  LIG1        0.0246
     67 H          -3.2937   -1.1026   -4.1149 H       1  LIG1        0.0246
     68 H          -1.7145   -0.6096   -3.4581 H       1  LIG1        0.0246
     69 H          -0.7256    2.6904   -3.5381 H       1  LIG1        0.0249
     70 H          -2.0877    2.6019   -4.6806 H       1  LIG1        0.0249
     71 H          -1.4045    4.1828   -4.2310 H       1  LIG1        0.0249
     72 H          -4.6098    4.0294   -2.3442 H       1  LIG1        0.0249
     73 H          -3.6727    4.9647   -3.5338 H       1  LIG1        0.0249
     74 H          -4.3559    3.3838   -3.9834 H       1  LIG1        0.0249
     75 H         -17.2044   -0.3884   -2.7069 H       1  LIG1        0.0777
     76 H         -15.8557   -0.7325   -3.8164 H       1  LIG1        0.0777
     77 H         -17.1535   -1.9302   -3.5950 H       1  LIG1        0.0777
     78 H          -3.6333   -2.6409   -2.2315 H       1  LIG1        0.0466
     79 H          -2.0150   -2.2581   -1.5966 H       1  LIG1        0.0466
     80 H          -2.1770    3.8531   -1.8979 H       1  LIG1        0.0497
     81 H          -7.7487   -3.8661    1.0738 H       1  LIG1        0.1529
     82 H          -3.7307    1.4685   -2.5513 H       1  LIG1        0.1469
     83 H         -14.2151   -5.3692    2.5803 H       1  LIG1        0.1719
     84 H         -15.2463   -1.0713   -1.5367 H       1  LIG1        0.2001
@<TRIPOS>BOND
     1     1     3   ar
     2     1     7   ar
     3     2     4   ar
     4     2     9   ar
     5     3    11   ar
     6     4    10   ar
     7     5     8   ar
     8     5    10   ar
     9     6     8   ar
    10     6    12   ar
    11     7    30   ar
    12     8     9   ar
    13     9    31   ar
    14    10    35    1
    15    11    13   ar
    16    11    34    1
    17    12    14    1
    18    12    31   ar
    19    13    30   ar
    20    13    36    1
    21    14    32   am
    22    14    38    2
    23    15    17    1
    24    15    23    1
    25    16    18    1
    26    16    23    1
    27    17    32    1
    28    18    32    1
    29    19    21    1
    30    19    33    1
    31    20    22    1
    32    20    33    1
    33    21    37    1
    34    22    37    1
    35    23    36    1
    36    24    28    1
    37    25    29    1
    38    26    29    1
    39    27    37    1
    40    28    36    1
    41    29    34    1
    42    33    41    1
    43    35    41    1
    44    39    41    2
    45    40    41    2
    46     1    42    1
    47     2    43    1
    48     3    44    1
    49     4    45    1
    50     5    46    1
    51     6    47    1
    52     7    48    1
    53    15    49    1
    54    15    50    1
    55    16    51    1
    56    16    52    1
    57    17    53    1
    58    17    54    1
    59    18    55    1
    60    18    56    1
    61    19    57    1
    62    19    58    1
    63    20    59    1
    64    20    60    1
    65    21    61    1
    66    21    62    1
    67    22    63    1
    68    22    64    1
    69    23    65    1
    70    24    66    1
    71    24    67    1
    72    24    68    1
    73    25    69    1
    74    25    70    1
    75    25    71    1
    76    26    72    1
    77    26    73    1
    78    26    74    1
    79    27    75    1
    80    27    76    1
    81    27    77    1
    82    28    78    1
    83    28    79    1
    84    29    80    1
    85    31    81    1
    86    34    82    1
    87    35    83    1
    88    37    84    1
