@<TRIPOS>MOLECULE
ChEBML208342
 58 62 0 0 0
SMALL
USER_CHARGES

@<TRIPOS>ATOM
      1 C          -2.0485   -4.8398   -6.1116 C.ar    1  LIG1       -0.0622
      2 C         -12.7475   -4.5554    1.1818 C.ar    1  LIG1       -0.0615
      3 C          -3.0566   -3.8759   -6.1098 C.ar    1  LIG1       -0.0616
      4 C          -1.2502   -5.0161   -4.9813 C.ar    1  LIG1       -0.0616
      5 C         -11.8501   -5.5250    0.7388 C.ar    1  LIG1       -0.0603
      6 C         -12.2913   -3.3191    1.6534 C.ar    1  LIG1       -0.0530
      7 C          -3.2663   -3.0879   -4.9780 C.ar    1  LIG1       -0.0528
      8 C          -1.4599   -4.2283   -3.8495 C.ar    1  LIG1       -0.0528
      9 C         -10.4719   -5.2915    0.7524 C.ar    1  LIG1       -0.0402
     10 C          -3.3967    1.2740   -2.5486 C.ar    1  LIG1       -0.0388
     11 C          -2.2767    1.7771   -3.2175 C.ar    1  LIG1       -0.0416
     12 C         -10.1113   -1.9509    2.0777 C.ar    1  LIG1       -0.0262
     13 C          -1.4176   -0.4560   -3.4626 C.ar    1  LIG1       -0.0322
     14 C         -10.9063   -3.0610    1.6767 C.ar    1  LIG1       -0.0022
     15 C          -2.4680   -3.2642   -3.8478 C.ar    1  LIG1        0.0003
     16 C          -2.5479   -0.9590   -2.8004 C.ar    1  LIG1        0.0230
     17 C         -10.0304   -4.0511    1.2265 C.ar    1  LIG1        0.0378
     18 C          -3.5548   -0.1031   -2.3058 C.ar    1  LIG1        0.0382
     19 C          -1.2852    0.9133   -3.6680 C.ar    1  LIG1        0.0414
     20 C          -8.7927   -2.2827    1.8674 C.ar    1  LIG1        0.0944
     21 C          -2.6880   -2.4378   -2.6608 C.2     1  LIG1        0.0739
     22 C          -7.5824   -1.4617    2.1292 C.2     1  LIG1        0.2572
     23 C          -3.1704   -2.1909   -0.3634 C.3     1  LIG1        0.0583
     24 C          -4.5042   -1.4383   -0.4250 C.3     1  LIG1        0.0434
     25 C          -5.9550   -0.6029   -2.3051 C.3     1  LIG1        0.0005
     26 C          -4.6552   -0.5810    0.8369 C.3     1  LIG1       -0.0171
     27 C          -5.1039   -1.3957    2.0388 C.3     1  LIG1        0.0132
     28 N          -2.9955   -3.0225   -1.5502 N.2     1  LIG1       -0.2820
     29 N          -8.7540   -3.5511    1.3537 N.ar    1  LIG1       -0.3101
     30 N          -4.6633   -0.5989   -1.6274 N.pl3   1  LIG1       -0.3283
     31 N          -6.3626   -2.0528    1.8198 N.am    1  LIG1       -0.3102
     32 O          -7.7114   -0.3397    2.6119 O.2     1  LIG1       -0.2704
     33 CL          0.0966    1.5356   -4.4822 Cl      1  LIG1       -0.0843
     34 H          -1.8852   -5.4531   -6.9927 H       1  LIG1        0.0622
     35 H         -13.8148   -4.7599    1.1609 H       1  LIG1        0.0623
     36 H          -3.6779   -3.7386   -6.9900 H       1  LIG1        0.0623
     37 H          -0.4654   -5.7669   -4.9825 H       1  LIG1        0.0623
     38 H         -12.2264   -6.4781    0.3769 H       1  LIG1        0.0623
     39 H         -13.0020   -2.5718    1.9955 H       1  LIG1        0.0629
     40 H          -4.0547   -2.3397   -4.9876 H       1  LIG1        0.0630
     41 H          -0.8316   -4.3742   -2.9745 H       1  LIG1        0.0630
     42 H          -9.7735   -6.0466    0.4079 H       1  LIG1        0.0642
     43 H          -4.1390    1.9869   -2.1965 H       1  LIG1        0.0643
     44 H          -2.1924    2.8500   -3.3717 H       1  LIG1        0.0639
     45 H         -10.4702   -1.0117    2.4770 H       1  LIG1        0.0651
     46 H          -0.6444   -1.1325   -3.8203 H       1  LIG1        0.0646
     47 H          -2.3151   -1.5185   -0.2129 H       1  LIG1        0.0534
     48 H          -3.1726   -2.8555    0.5093 H       1  LIG1        0.0534
     49 H          -5.3110   -2.1832   -0.4315 H       1  LIG1        0.0525
     50 H          -6.7227   -1.0194   -1.6480 H       1  LIG1        0.0432
     51 H          -5.9032   -1.2086   -3.2138 H       1  LIG1        0.0432
     52 H          -6.2412    0.4162   -2.5790 H       1  LIG1        0.0432
     53 H          -5.3938    0.1976    0.6316 H       1  LIG1        0.0302
     54 H          -3.7010   -0.0887    1.0408 H       1  LIG1        0.0302
     55 H          -4.3671   -2.1774    2.2488 H       1  LIG1        0.0467
     56 H          -5.2025   -0.7715    2.9326 H       1  LIG1        0.0467
     57 H          -7.9120   -4.0516    1.1037 H       1  LIG1        0.1529
     58 H          -6.3387   -3.0131    1.4807 H       1  LIG1        0.1497
@<TRIPOS>BOND
     1     1     3   ar
     2     1     4   ar
     3     2     5   ar
     4     2     6   ar
     5     3     7   ar
     6     4     8   ar
     7     5     9   ar
     8     6    14   ar
     9     7    15   ar
    10     8    15   ar
    11     9    17   ar
    12    10    11   ar
    13    10    18   ar
    14    11    19   ar
    15    12    14   ar
    16    12    20   ar
    17    13    16   ar
    18    13    19   ar
    19    14    17   ar
    20    15    21    1
    21    16    18   ar
    22    16    21    1
    23    17    29   ar
    24    18    30    1
    25    19    33    1
    26    20    22    1
    27    20    29   ar
    28    21    28    2
    29    22    31   am
    30    22    32    2
    31    23    24    1
    32    23    28    1
    33    24    26    1
    34    24    30    1
    35    25    30    1
    36    26    27    1
    37    27    31    1
    38     1    34    1
    39     2    35    1
    40     3    36    1
    41     4    37    1
    42     5    38    1
    43     6    39    1
    44     7    40    1
    45     8    41    1
    46     9    42    1
    47    10    43    1
    48    11    44    1
    49    12    45    1
    50    13    46    1
    51    23    47    1
    52    23    48    1
    53    24    49    1
    54    25    50    1
    55    25    51    1
    56    25    52    1
    57    26    53    1
    58    26    54    1
    59    27    55    1
    60    27    56    1
    61    29    57    1
    62    31    58    1
