@<TRIPOS>MOLECULE
ChEBML1212941
 38 40 0 0 0
SMALL
USER_CHARGES

@<TRIPOS>ATOM
      1 C         -10.8986   -3.5943    1.3430 C.ar    1  LIG1       -0.0614
      2 C         -11.1913   -2.4824    2.1589 C.ar    1  LIG1       -0.0614
      3 C          -2.2396    0.9871   -3.6080 C.ar    1  LIG1       -0.0434
      4 C          -9.5967   -3.8332    0.8937 C.ar    1  LIG1       -0.0489
      5 C         -10.1879   -1.5878    2.5418 C.ar    1  LIG1       -0.0489
      6 C          -1.4855    0.0540   -2.9051 C.ar    1  LIG1       -0.0543
      7 C          -3.5027    1.2941   -3.1284 C.ar    1  LIG1        0.0291
      8 C          -8.6227   -2.9375    1.2842 C.ar    1  LIG1        0.0502
      9 C          -8.9105   -1.8436    2.0872 C.ar    1  LIG1        0.0502
     10 C          -2.0102   -0.5352   -1.7602 C.ar    1  LIG1       -0.0105
     11 C          -3.2835   -0.1599   -1.3632 C.ar    1  LIG1        0.1267
     12 C          -7.1921   -2.9140    0.9824 C.2     1  LIG1        0.2538
     13 C          -7.6679   -1.1049    2.3103 C.2     1  LIG1        0.2538
     14 C          -5.0783   -0.5227    0.3671 C.2     1  LIG1        0.2381
     15 C          -1.1989   -1.5360   -1.0098 C.3     1  LIG1       -0.0363
     16 C          -4.9061   -0.6789    2.8672 C.3     1  LIG1       -0.0370
     17 C          -5.2990   -1.4083    1.5920 C.3     1  LIG1        0.1079
     18 N          -4.0461    0.7427   -2.0202 N.ar    1  LIG1       -0.2409
     19 N          -6.6934   -1.8015    1.6277 N.am    1  LIG1       -0.2214
     20 N          -3.8276   -0.7542   -0.1997 N.am    1  LIG1       -0.2682
     21 O          -6.6249   -3.7405    0.2922 O.2     1  LIG1       -0.2711
     22 O          -7.5907   -0.0880    2.9743 O.2     1  LIG1       -0.2711
     23 O          -5.9454    0.2449   -0.0408 O.2     1  LIG1       -0.2750
     24 H         -11.6986   -4.2735    1.0599 H       1  LIG1        0.0623
     25 H         -12.2128   -2.3201    2.4927 H       1  LIG1        0.0623
     26 H          -1.8517    1.4594   -4.5032 H       1  LIG1        0.0639
     27 H          -9.3719   -4.6877    0.2663 H       1  LIG1        0.0631
     28 H         -10.4137   -0.7327    3.1678 H       1  LIG1        0.0631
     29 H          -0.4911   -0.2067   -3.2570 H       1  LIG1        0.0627
     30 H          -4.1311    2.0153   -3.6397 H       1  LIG1        0.0840
     31 H          -0.5896   -1.0383   -0.2452 H       1  LIG1        0.0281
     32 H          -1.8389   -2.2784   -0.5152 H       1  LIG1        0.0281
     33 H          -0.5297   -2.0907   -1.6807 H       1  LIG1        0.0281
     34 H          -5.4799    0.2455    2.9896 H       1  LIG1        0.0255
     35 H          -3.8436   -0.4102    2.8582 H       1  LIG1        0.0255
     36 H          -5.0818   -1.3082    3.7464 H       1  LIG1        0.0255
     37 H          -4.7158   -2.3298    1.4858 H       1  LIG1        0.0609
     38 H          -3.2235   -1.4284    0.2654 H       1  LIG1        0.1572
@<TRIPOS>BOND
     1     1     2   ar
     2     1     4   ar
     3     2     5   ar
     4     3     6   ar
     5     3     7   ar
     6     4     8   ar
     7     5     9   ar
     8     6    10   ar
     9     7    18   ar
    10     8     9   ar
    11     8    12    1
    12     9    13    1
    13    10    11   ar
    14    10    15    1
    15    11    18   ar
    16    11    20    1
    17    12    19   am
    18    12    21    2
    19    13    19   am
    20    13    22    2
    21    14    17    1
    22    14    20   am
    23    14    23    2
    24    16    17    1
    25    17    19    1
    26     1    24    1
    27     2    25    1
    28     3    26    1
    29     4    27    1
    30     5    28    1
    31     6    29    1
    32     7    30    1
    33    15    31    1
    34    15    32    1
    35    15    33    1
    36    16    34    1
    37    16    35    1
    38    16    36    1
    39    17    37    1
    40    20    38    1
