@<TRIPOS>MOLECULE
ChEBML472033
 39 42 0 0 0
SMALL
USER_CHARGES

@<TRIPOS>ATOM
      1 C          -2.1200    1.2992   -3.1547 C.ar    1  LIG1       -0.0621
      2 C          -1.5958    0.0455   -2.8402 C.ar    1  LIG1       -0.0604
      3 C          -3.4205    1.6275   -2.7718 C.ar    1  LIG1       -0.0604
      4 C         -11.5804   -6.0759    0.0695 C.ar    1  LIG1       -0.0482
      5 C         -12.5547   -4.1461    1.1483 C.ar    1  LIG1       -0.0482
      6 C          -2.3720   -0.8800   -2.1427 C.ar    1  LIG1       -0.0407
      7 C          -4.1968    0.7020   -2.0743 C.ar    1  LIG1       -0.0407
      8 C         -10.3112   -5.5156    0.2135 C.ar    1  LIG1       -0.0402
      9 C         -11.2854   -3.5858    1.2923 C.ar    1  LIG1       -0.0402
     10 C          -8.6421   -0.7696    3.0523 C.ar    1  LIG1        0.1187
     11 C         -12.7023   -5.3910    0.5368 C.ar    1  LIG1        0.0556
     12 C          -7.2800   -1.8724    1.0454 C.ar    1  LIG1        0.1389
     13 C         -10.1637   -4.2706    0.8249 C.ar    1  LIG1        0.0314
     14 C          -3.6726   -0.5518   -1.7598 C.ar    1  LIG1        0.0318
     15 C          -8.4306   -2.4936    1.5334 C.ar    1  LIG1        0.1523
     16 C          -6.9106   -0.6827    1.6595 C.ar    1  LIG1        0.1347
     17 C          -5.4719   -1.4064   -0.1179 C.ar    1  LIG1        0.1640
     18 C         -14.0597   -5.9890    0.3829 C.3     1  LIG1        0.4160
     19 N          -9.1181   -1.9296    2.5514 N.ar    1  LIG1       -0.2190
     20 N          -7.5517   -0.0748    2.6733 N.ar    1  LIG1       -0.2271
     21 N          -6.4443   -2.2816    0.0215 N.ar    1  LIG1       -0.2199
     22 N          -8.8804   -3.7047    0.9725 N.pl3   1  LIG1       -0.2977
     23 N          -4.4761   -1.5091   -1.0380 N.pl3   1  LIG1       -0.2938
     24 F         -14.0543   -7.2085   -0.2326 F       1  LIG1       -0.1661
     25 F         -14.7055   -6.1921    1.5693 F       1  LIG1       -0.1661
     26 F         -14.8966   -5.2078   -0.3603 F       1  LIG1       -0.1661
     27 S          -5.4928   -0.0599    0.9479 S.2     1  LIG1       -0.0317
     28 H          -1.5155    2.0198   -3.6980 H       1  LIG1        0.0622
     29 H          -0.5834   -0.2099   -3.1384 H       1  LIG1        0.0623
     30 H          -3.8286    2.6039   -3.0168 H       1  LIG1        0.0623
     31 H         -11.6862   -7.0457   -0.4090 H       1  LIG1        0.0629
     32 H         -13.4230   -3.6046    1.5138 H       1  LIG1        0.0629
     33 H          -1.9543   -1.8543   -1.9026 H       1  LIG1        0.0642
     34 H          -5.2089    0.9689   -1.7809 H       1  LIG1        0.0642
     35 H          -9.4439   -6.0570   -0.1555 H       1  LIG1        0.0642
     36 H         -11.1822   -2.6148    1.7697 H       1  LIG1        0.0642
     37 H          -9.2142   -0.3398    3.8674 H       1  LIG1        0.1063
     38 H          -8.1346   -4.2851    0.6000 H       1  LIG1        0.1543
     39 H          -4.2013   -2.4716   -1.3095 H       1  LIG1        0.1548
@<TRIPOS>BOND
     1     1     2   ar
     2     1     3   ar
     3     2     6   ar
     4     3     7   ar
     5     4     8   ar
     6     4    11   ar
     7     5     9   ar
     8     5    11   ar
     9     6    14   ar
    10     7    14   ar
    11     8    13   ar
    12     9    13   ar
    13    10    19   ar
    14    10    20   ar
    15    11    18    1
    16    12    15   ar
    17    12    16   ar
    18    12    21   ar
    19    13    22    1
    20    14    23    1
    21    15    19   ar
    22    15    22    1
    23    16    20   ar
    24    16    27   ar
    25    17    21   ar
    26    17    23    1
    27    17    27   ar
    28    18    24    1
    29    18    25    1
    30    18    26    1
    31     1    28    1
    32     2    29    1
    33     3    30    1
    34     4    31    1
    35     5    32    1
    36     6    33    1
    37     7    34    1
    38     8    35    1
    39     9    36    1
    40    10    37    1
    41    22    38    1
    42    23    39    1
