@<TRIPOS>MOLECULE
ChEBML233575
 44 46 0 0 0
SMALL
USER_CHARGES

@<TRIPOS>ATOM
      1 C         -10.2182   -5.2436    0.5955 C.ar    1  LIG1       -0.0376
      2 C         -11.5500   -5.6440    0.7366 C.ar    1  LIG1       -0.0299
      3 C         -12.1410   -3.5203    1.7553 C.ar    1  LIG1       -0.0226
      4 C         -10.1063   -1.9007    1.9587 C.ar    1  LIG1       -0.0275
      5 C          -6.7077   -1.4670   -0.5621 C.ar    1  LIG1       -0.0177
      6 C          -5.2867   -0.6879    1.2297 C.ar    1  LIG1       -0.0177
      7 C         -10.8042   -3.0947    1.6237 C.ar    1  LIG1        0.0003
      8 C          -6.5392   -1.0973    0.7723 C.ar    1  LIG1        0.0292
      9 C          -9.8755   -3.9644    1.0479 C.ar    1  LIG1        0.0379
     10 C         -12.4983   -4.7972    1.3072 C.ar    1  LIG1        0.0753
     11 C          -5.6236   -1.4274   -1.4390 C.ar    1  LIG1        0.1082
     12 C          -4.2026   -0.6482    0.3528 C.ar    1  LIG1        0.1082
     13 C          -4.3711   -1.0180   -0.9815 C.ar    1  LIG1        0.1352
     14 C          -8.7919   -2.0658    1.5872 C.ar    1  LIG1        0.0797
     15 C          -7.7100   -1.1424    1.7216 C.2     1  LIG1        0.2068
     16 C         -14.0931   -6.5263    0.9571 C.3     1  LIG1        0.0422
     17 C          -5.6021   -3.1671   -3.0604 C.3     1  LIG1        0.0424
     18 C          -2.1214   -1.2585    1.3286 C.3     1  LIG1        0.0424
     19 C          -3.0944    0.2426   -2.5425 C.3     1  LIG1        0.0425
     20 N          -8.6626   -3.3134    1.0386 N.ar    1  LIG1       -0.3112
     21 O          -7.6797   -0.3069    2.6552 O.2     1  LIG1       -0.2871
     22 O         -13.7892   -5.2163    1.4312 O.3     1  LIG1       -0.3493
     23 O          -5.8015   -1.7918   -2.7396 O.3     1  LIG1       -0.3464
     24 O          -2.9844   -0.2471    0.8125 O.3     1  LIG1       -0.3464
     25 O          -3.3121   -0.9784   -1.8393 O.3     1  LIG1       -0.3440
     26 H          -9.4807   -5.9033    0.1508 H       1  LIG1        0.0643
     27 H         -11.8426   -6.6334    0.3930 H       1  LIG1        0.0651
     28 H         -12.8866   -2.8657    2.1987 H       1  LIG1        0.0657
     29 H         -10.5252   -1.0174    2.4225 H       1  LIG1        0.0651
     30 H          -7.6819   -1.7885   -0.9231 H       1  LIG1        0.0659
     31 H          -5.1507   -0.3980    2.2691 H       1  LIG1        0.0659
     32 H         -15.1540   -6.7349    1.1154 H       1  LIG1        0.0535
     33 H         -13.4830   -7.2588    1.4917 H       1  LIG1        0.0535
     34 H         -13.8691   -6.5786   -0.1109 H       1  LIG1        0.0535
     35 H          -5.7754   -3.3217   -4.1282 H       1  LIG1        0.0535
     36 H          -6.2907   -3.7821   -2.4758 H       1  LIG1        0.0535
     37 H          -4.5734   -3.4433   -2.8169 H       1  LIG1        0.0535
     38 H          -1.1846   -0.8045    1.6607 H       1  LIG1        0.0535
     39 H          -1.9234   -2.0011    0.5515 H       1  LIG1        0.0535
     40 H          -2.6097   -1.7434    2.1772 H       1  LIG1        0.0535
     41 H          -2.2210    0.1397   -3.1911 H       1  LIG1        0.0535
     42 H          -2.9364    1.0532   -1.8266 H       1  LIG1        0.0535
     43 H          -3.9739    0.4635   -3.1519 H       1  LIG1        0.0535
     44 H          -7.8026   -3.7035    0.6778 H       1  LIG1        0.1529
@<TRIPOS>BOND
     1     1     2   ar
     2     1     9   ar
     3     2    10   ar
     4     3     7   ar
     5     3    10   ar
     6     4     7   ar
     7     4    14   ar
     8     5     8   ar
     9     5    11   ar
    10     6     8   ar
    11     6    12   ar
    12     7     9   ar
    13     8    15    1
    14     9    20   ar
    15    10    22    1
    16    11    13   ar
    17    11    23    1
    18    12    13   ar
    19    12    24    1
    20    13    25    1
    21    14    15    1
    22    14    20   ar
    23    15    21    2
    24    16    22    1
    25    17    23    1
    26    18    24    1
    27    19    25    1
    28     1    26    1
    29     2    27    1
    30     3    28    1
    31     4    29    1
    32     5    30    1
    33     6    31    1
    34    16    32    1
    35    16    33    1
    36    16    34    1
    37    17    35    1
    38    17    36    1
    39    17    37    1
    40    18    38    1
    41    18    39    1
    42    18    40    1
    43    19    41    1
    44    19    42    1
    45    19    43    1
    46    20    44    1
