@<TRIPOS>MOLECULE
ChEBML744144
 43 45 0 0 0
SMALL
USER_CHARGES

@<TRIPOS>ATOM
      1 C         -12.6916   -5.1952    2.0207 C.ar    1  LIG1       -0.0619
      2 C         -11.6750   -5.8832    1.3636 C.ar    1  LIG1       -0.0619
      3 C         -12.5011   -3.8679    2.4029 C.ar    1  LIG1       -0.0586
      4 C         -10.4639   -5.2465    1.0928 C.ar    1  LIG1       -0.0572
      5 C          -4.2491    0.8075   -1.9765 C.ar    1  LIG1       -0.0288
      6 C          -3.7917    0.9858   -3.2821 C.ar    1  LIG1       -0.0408
      7 C          -1.7453   -0.1706   -2.7230 C.ar    1  LIG1       -0.0221
      8 C         -11.2931   -3.2152    2.1222 C.ar    1  LIG1       -0.0416
      9 C         -10.2584   -3.9129    1.4751 C.ar    1  LIG1       -0.0273
     10 C          -3.4546    0.1403   -1.0442 C.ar    1  LIG1        0.0937
     11 C          -2.5398    0.4967   -3.6555 C.ar    1  LIG1        0.0422
     12 C          -2.2028   -0.3488   -1.4174 C.ar    1  LIG1        0.0723
     13 C          -7.5785   -1.3456    2.0653 C.2     1  LIG1        0.2147
     14 C         -11.0883   -1.7899    2.5611 C.3     1  LIG1       -0.0116
     15 C          -8.9322   -3.2584    1.1725 C.3     1  LIG1        0.0394
     16 C         -10.0400   -1.0950    1.7012 C.3     1  LIG1        0.0185
     17 C          -6.3877   -2.2684    1.9786 C.3     1  LIG1        0.0267
     18 C          -5.1221   -1.4741    1.7154 C.3     1  LIG1       -0.0205
     19 C          -5.1433   -0.7452    0.3771 C.3     1  LIG1        0.0539
     20 N          -8.8055   -1.8779    1.6619 N.am    1  LIG1       -0.2971
     21 O          -7.4236   -0.1952    2.4820 O.2     1  LIG1       -0.2774
     22 O          -3.9290   -0.0207    0.2315 O.3     1  LIG1       -0.3445
     23 CL         -1.9766    0.7176   -5.2666 Cl      1  LIG1       -0.0842
     24 CL         -1.1999   -1.1771   -0.2844 Cl      1  LIG1       -0.0814
     25 H         -13.6323   -5.6927    2.2380 H       1  LIG1        0.0623
     26 H         -11.8233   -6.9169    1.0653 H       1  LIG1        0.0623
     27 H         -13.3010   -3.3440    2.9203 H       1  LIG1        0.0625
     28 H          -9.6765   -5.7973    0.5841 H       1  LIG1        0.0626
     29 H          -5.2250    1.1915   -1.6923 H       1  LIG1        0.0651
     30 H          -4.4209    1.5082   -3.9981 H       1  LIG1        0.0639
     31 H          -0.7689   -0.5514   -3.0151 H       1  LIG1        0.0655
     32 H         -12.0294   -1.2318    2.4950 H       1  LIG1        0.0332
     33 H         -10.7696   -1.7952    3.6107 H       1  LIG1        0.0332
     34 H          -8.1341   -3.8718    1.6012 H       1  LIG1        0.0520
     35 H          -8.7911   -3.2172    0.0858 H       1  LIG1        0.0520
     36 H         -10.3887   -0.9891    0.6663 H       1  LIG1        0.0473
     37 H          -9.8541   -0.0874    2.0868 H       1  LIG1        0.0473
     38 H          -6.5816   -2.9983    1.1940 H       1  LIG1        0.0365
     39 H          -6.3195   -2.7810    2.9382 H       1  LIG1        0.0365
     40 H          -4.9383   -0.7504    2.5197 H       1  LIG1        0.0295
     41 H          -4.2668   -2.1610    1.7297 H       1  LIG1        0.0295
     42 H          -5.9754   -0.0366    0.3237 H       1  LIG1        0.0572
     43 H          -5.2255   -1.4550   -0.4522 H       1  LIG1        0.0572
@<TRIPOS>BOND
     1     1     2   ar
     2     1     3   ar
     3     2     4   ar
     4     3     8   ar
     5     4     9   ar
     6     5     6   ar
     7     5    10   ar
     8     6    11   ar
     9     7    11   ar
    10     7    12   ar
    11     8     9   ar
    12     8    14    1
    13     9    15    1
    14    10    12   ar
    15    10    22    1
    16    11    23    1
    17    12    24    1
    18    13    17    1
    19    13    20   am
    20    13    21    2
    21    14    16    1
    22    15    20    1
    23    16    20    1
    24    17    18    1
    25    18    19    1
    26    19    22    1
    27     1    25    1
    28     2    26    1
    29     3    27    1
    30     4    28    1
    31     5    29    1
    32     6    30    1
    33     7    31    1
    34    14    32    1
    35    14    33    1
    36    15    34    1
    37    15    35    1
    38    16    36    1
    39    16    37    1
    40    17    38    1
    41    17    39    1
    42    18    40    1
    43    18    41    1
    44    19    42    1
    45    19    43    1
