@<TRIPOS>MOLECULE
ChEBML228254
 47 50 0 0 0
SMALL
USER_CHARGES

@<TRIPOS>ATOM
      1 C          -1.8881    0.4961   -3.4082 C.ar    1  LIG1       -0.0621
      2 C          -2.7508   -0.5861   -3.2348 C.ar    1  LIG1       -0.0596
      3 C          -2.0851    1.6689   -2.6792 C.ar    1  LIG1       -0.0596
      4 C          -4.4235   -1.9685    1.6334 C.ar    1  LIG1       -0.0590
      5 C         -10.5379   -4.8104   -0.0135 C.ar    1  LIG1       -0.0483
      6 C          -5.7182   -2.4481    1.8308 C.ar    1  LIG1       -0.0539
      7 C         -11.8356   -5.2538    0.2246 C.ar    1  LIG1       -0.0399
      8 C          -3.8107   -0.4955   -2.3326 C.ar    1  LIG1       -0.0312
      9 C          -3.1450    1.7596   -1.7770 C.ar    1  LIG1       -0.0312
     10 C          -4.2027   -0.8875    0.7799 C.ar    1  LIG1       -0.0312
     11 C          -6.5715   -0.7660    0.3210 C.ar    1  LIG1       -0.0231
     12 C         -12.0090   -3.6949    2.0586 C.ar    1  LIG1       -0.0141
     13 C          -9.9721   -3.8042    0.7879 C.ar    1  LIG1        0.0312
     14 C          -6.7923   -1.8469    1.1744 C.ar    1  LIG1       -0.0088
     15 C          -8.1379   -2.3444    1.3793 C.ar    1  LIG1        0.0620
     16 C         -10.7136   -3.2326    1.8430 C.ar    1  LIG1        0.0777
     17 C         -12.5717   -4.6952    1.2620 C.ar    1  LIG1        0.0347
     18 C          -4.0079    0.6774   -1.6036 C.ar    1  LIG1        0.0820
     19 C          -5.2766   -0.2863    0.1237 C.ar    1  LIG1        0.0827
     20 C          -8.6681   -3.3391    0.5704 C.ar    1  LIG1        0.0928
     21 C          -8.9393   -1.8462    2.3865 C.ar    1  LIG1        0.1751
     22 C         -14.5551   -6.1143    0.7984 C.2     1  LIG1        0.2309
     23 C         -15.9487   -6.3329    1.3402 C.3     1  LIG1        0.0995
     24 N         -10.2018   -2.2671    2.6297 N.ar    1  LIG1       -0.2235
     25 N         -13.8737   -5.1325    1.5084 N.am    1  LIG1       -0.2843
     26 O         -14.1616   -6.7576   -0.1708 O.2     1  LIG1       -0.2759
     27 O          -7.9090   -3.8601   -0.4410 O.3     1  LIG1       -0.3594
     28 O          -8.4684   -0.8645    3.2202 O.3     1  LIG1       -0.3445
     29 O          -5.0609    0.7686   -0.7090 O.3     1  LIG1       -0.3104
     30 CL        -17.0954   -5.9906    0.0351 Cl      1  LIG1       -0.1163
     31 H          -1.0623    0.4256   -4.1102 H       1  LIG1        0.0622
     32 H          -2.5977   -1.4994   -3.8025 H       1  LIG1        0.0623
     33 H          -1.4126    2.5112   -2.8147 H       1  LIG1        0.0623
     34 H          -3.5871   -2.4369    2.1442 H       1  LIG1        0.0624
     35 H          -9.9805   -5.2629   -0.8303 H       1  LIG1        0.0631
     36 H          -5.8742   -3.2916    2.4992 H       1  LIG1        0.0629
     37 H         -12.2599   -6.0324   -0.4037 H       1  LIG1        0.0643
     38 H          -4.4802   -1.3415   -2.2032 H       1  LIG1        0.0650
     39 H          -3.2948    2.6764   -1.2133 H       1  LIG1        0.0650
     40 H          -3.1919   -0.5179    0.6300 H       1  LIG1        0.0650
     41 H          -7.4032   -0.2912   -0.1959 H       1  LIG1        0.0657
     42 H         -12.5993   -3.2637    2.8666 H       1  LIG1        0.0665
     43 H         -16.1786   -5.6860    2.1906 H       1  LIG1        0.0535
     44 H         -16.0598   -7.3761    1.6493 H       1  LIG1        0.0535
     45 H         -14.3707   -4.6914    2.2799 H       1  LIG1        0.1557
     46 H          -8.4116   -4.5384   -0.9148 H       1  LIG1        0.2183
     47 H          -9.1498   -0.6299    3.8650 H       1  LIG1        0.2199
@<TRIPOS>BOND
     1     1     2   ar
     2     1     3   ar
     3     2     8   ar
     4     3     9   ar
     5     4     6   ar
     6     4    10   ar
     7     5     7   ar
     8     5    13   ar
     9     6    14   ar
    10     7    17   ar
    11     8    18   ar
    12     9    18   ar
    13    10    19   ar
    14    11    14   ar
    15    11    19   ar
    16    12    16   ar
    17    12    17   ar
    18    13    16   ar
    19    13    20   ar
    20    14    15    1
    21    15    20   ar
    22    15    21   ar
    23    16    24   ar
    24    17    25    1
    25    18    29    1
    26    19    29    1
    27    20    27    1
    28    21    24   ar
    29    21    28    1
    30    22    23    1
    31    22    25   am
    32    22    26    2
    33    23    30    1
    34     1    31    1
    35     2    32    1
    36     3    33    1
    37     4    34    1
    38     5    35    1
    39     6    36    1
    40     7    37    1
    41     8    38    1
    42     9    39    1
    43    10    40    1
    44    11    41    1
    45    12    42    1
    46    23    43    1
    47    23    44    1
    48    25    45    1
    49    27    46    1
    50    28    47    1
