@<TRIPOS>MOLECULE
ChEBML347776
 37 40 0 0 0
SMALL
USER_CHARGES

@<TRIPOS>ATOM
      1 C          -2.8566   -1.9745   -1.8215 C.ar    1  LIG1       -0.0577
      2 C          -3.6912   -2.5910   -0.8850 C.ar    1  LIG1       -0.0400
      3 C         -10.2561   -5.2483    0.6036 C.ar    1  LIG1       -0.0376
      4 C          -3.0743   -0.6574   -2.2211 C.ar    1  LIG1       -0.0310
      5 C         -11.5893   -5.6424    0.7482 C.ar    1  LIG1       -0.0302
      6 C         -12.1686   -3.5149    1.7655 C.ar    1  LIG1       -0.0229
      7 C         -10.1261   -1.9042    1.9623 C.ar    1  LIG1       -0.0275
      8 C          -6.1360   -0.0752   -0.0251 C.ar    1  LIG1       -0.0249
      9 C         -10.8301   -3.0955    1.6302 C.ar    1  LIG1        0.0003
     10 C          -4.9923   -0.5157   -0.7482 C.ar    1  LIG1        0.0281
     11 C          -9.9067   -3.9701    1.0536 C.ar    1  LIG1        0.0379
     12 C          -4.7500   -1.8371   -0.3664 C.ar    1  LIG1        0.0404
     13 C         -12.5325   -4.7908    1.3199 C.ar    1  LIG1        0.0720
     14 C          -4.1375    0.0846   -1.6939 C.ar    1  LIG1        0.0838
     15 C          -8.8133   -2.0755    1.5880 C.ar    1  LIG1        0.0811
     16 C          -6.5582   -1.1182    0.7666 C.ar    1  LIG1        0.0812
     17 C          -7.7270   -1.1569    1.7188 C.2     1  LIG1        0.2206
     18 C          -5.1639    1.5722   -3.2396 C.3     1  LIG1        0.0423
     19 N          -8.6908   -3.3245    1.0407 N.ar    1  LIG1       -0.3112
     20 N          -5.7158   -2.1763    0.5542 N.ar    1  LIG1       -0.3111
     21 O          -7.6913   -0.3199    2.6507 O.2     1  LIG1       -0.2856
     22 O         -13.8251   -5.2039    1.4473 O.3     1  LIG1       -0.3609
     23 O          -4.3247    1.3764   -2.1069 O.3     1  LIG1       -0.3486
     24 H          -2.0239   -2.5323   -2.2427 H       1  LIG1        0.0624
     25 H          -3.5210   -3.6168   -0.5755 H       1  LIG1        0.0643
     26 H          -9.5225   -5.9119    0.1581 H       1  LIG1        0.0643
     27 H          -2.4082   -0.2056   -2.9521 H       1  LIG1        0.0650
     28 H         -11.8871   -6.6311    0.4065 H       1  LIG1        0.0651
     29 H         -12.9101   -2.8565    2.2096 H       1  LIG1        0.0657
     30 H         -10.5400   -1.0185    2.4258 H       1  LIG1        0.0651
     31 H          -6.5980    0.9015   -0.0804 H       1  LIG1        0.0652
     32 H          -5.2305    2.6395   -3.4646 H       1  LIG1        0.0535
     33 H          -6.1585    1.1701   -3.0312 H       1  LIG1        0.0535
     34 H          -4.7332    1.0478   -4.0960 H       1  LIG1        0.0535
     35 H          -7.8334   -3.7190    0.6784 H       1  LIG1        0.1529
     36 H          -5.7894   -3.0774    1.0063 H       1  LIG1        0.1529
     37 H         -14.3596   -4.5077    1.8599 H       1  LIG1        0.2182
@<TRIPOS>BOND
     1     1     2   ar
     2     1     4   ar
     3     2    12   ar
     4     3     5   ar
     5     3    11   ar
     6     4    14   ar
     7     5    13   ar
     8     6     9   ar
     9     6    13   ar
    10     7     9   ar
    11     7    15   ar
    12     8    10   ar
    13     8    16   ar
    14     9    11   ar
    15    10    12   ar
    16    10    14   ar
    17    11    19   ar
    18    12    20   ar
    19    13    22    1
    20    14    23    1
    21    15    17    1
    22    15    19   ar
    23    16    17    1
    24    16    20   ar
    25    17    21    2
    26    18    23    1
    27     1    24    1
    28     2    25    1
    29     3    26    1
    30     4    27    1
    31     5    28    1
    32     6    29    1
    33     7    30    1
    34     8    31    1
    35    18    32    1
    36    18    33    1
    37    18    34    1
    38    19    35    1
    39    20    36    1
    40    22    37    1
