@<TRIPOS>MOLECULE
ChEBML300344
 47 49 0 0 0
SMALL
USER_CHARGES

@<TRIPOS>ATOM
      1 C          -2.6968   -0.3077   -3.8129 C.ar    1  LIG1       -0.0622
      2 C          -3.0663    1.0349   -3.7327 C.ar    1  LIG1       -0.0619
      3 C          -2.4913   -1.0455   -2.6471 C.ar    1  LIG1       -0.0619
      4 C          -3.2302    1.6399   -2.4866 C.ar    1  LIG1       -0.0574
      5 C          -2.6553   -0.4405   -1.4010 C.ar    1  LIG1       -0.0574
      6 C         -10.2168   -5.2220    0.4082 C.ar    1  LIG1       -0.0387
      7 C         -11.5741   -5.5551    0.3831 C.ar    1  LIG1       -0.0416
      8 C         -12.1595   -3.4983    1.5338 C.ar    1  LIG1       -0.0343
      9 C         -10.0783   -2.0240    2.0811 C.ar    1  LIG1       -0.0262
     10 C         -10.7969   -3.1412    1.5710 C.ar    1  LIG1       -0.0007
     11 C          -3.0247    0.9022   -1.3207 C.ar    1  LIG1       -0.0306
     12 C          -9.8589   -4.0097    1.0085 C.ar    1  LIG1        0.0379
     13 C         -12.5322   -4.7080    0.9366 C.ar    1  LIG1        0.0413
     14 C          -8.7429   -2.2319    1.8235 C.ar    1  LIG1        0.0945
     15 C          -7.5916   -1.3552    2.1599 C.2     1  LIG1        0.2576
     16 C          -4.8156   -0.1461    0.9084 C.2     1  LIG1        0.2320
     17 C          -3.2007    1.5528    0.0209 C.3     1  LIG1        0.0393
     18 C          -5.1266   -1.0947    2.0527 C.3     1  LIG1        0.0887
     19 C          -2.7619    0.4800    2.1960 C.3     1  LIG1        0.0378
     20 C          -3.1855    1.4763    3.2598 C.3     1  LIG1        0.0589
     21 N          -8.6205   -3.4320    1.1761 N.ar    1  LIG1       -0.3101
     22 N          -6.3359   -1.8162    1.7772 N.am    1  LIG1       -0.3013
     23 N          -3.6386    0.5995    1.0376 N.am    1  LIG1       -0.2938
     24 O          -7.7940   -0.3037    2.7615 O.2     1  LIG1       -0.2704
     25 O          -5.5711   -0.0600   -0.0634 O.2     1  LIG1       -0.2756
     26 O          -3.0640    2.7965    2.7455 O.3     1  LIG1       -0.3947
     27 CL        -14.1960   -5.1525    0.8849 Cl      1  LIG1       -0.0843
     28 H          -2.5705   -0.7790   -4.7833 H       1  LIG1        0.0622
     29 H          -3.2274    1.6092   -4.6405 H       1  LIG1        0.0623
     30 H          -2.2047   -2.0911   -2.7092 H       1  LIG1        0.0623
     31 H          -3.5181    2.6866   -2.4338 H       1  LIG1        0.0626
     32 H          -2.4929   -1.0230   -0.4980 H       1  LIG1        0.0626
     33 H          -9.4718   -5.8827   -0.0225 H       1  LIG1        0.0643
     34 H         -11.8707   -6.4942   -0.0792 H       1  LIG1        0.0639
     35 H         -12.9055   -2.8368    1.9663 H       1  LIG1        0.0645
     36 H         -10.4976   -1.1617    2.5823 H       1  LIG1        0.0651
     37 H          -2.2595    1.9990    0.3600 H       1  LIG1        0.0520
     38 H          -3.9432    2.3562   -0.0264 H       1  LIG1        0.0520
     39 H          -4.3234   -1.8271    2.1678 H       1  LIG1        0.0567
     40 H          -5.2803   -0.5361    2.9797 H       1  LIG1        0.0567
     41 H          -1.7336    0.6626    1.8683 H       1  LIG1        0.0493
     42 H          -2.8399   -0.5421    2.5788 H       1  LIG1        0.0493
     43 H          -2.5316    1.3926    4.1333 H       1  LIG1        0.0580
     44 H          -4.2220    1.3145    3.5731 H       1  LIG1        0.0580
     45 H          -7.7489   -3.8384    0.8649 H       1  LIG1        0.1529
     46 H          -6.2493   -2.7314    1.3363 H       1  LIG1        0.1503
     47 H          -3.3432    3.3990    3.4535 H       1  LIG1        0.2101
@<TRIPOS>BOND
     1     1     2   ar
     2     1     3   ar
     3     2     4   ar
     4     3     5   ar
     5     4    11   ar
     6     5    11   ar
     7     6     7   ar
     8     6    12   ar
     9     7    13   ar
    10     8    10   ar
    11     8    13   ar
    12     9    10   ar
    13     9    14   ar
    14    10    12   ar
    15    11    17    1
    16    12    21   ar
    17    13    27    1
    18    14    15    1
    19    14    21   ar
    20    15    22   am
    21    15    24    2
    22    16    18    1
    23    16    23   am
    24    16    25    2
    25    17    23    1
    26    18    22    1
    27    19    20    1
    28    19    23    1
    29    20    26    1
    30     1    28    1
    31     2    29    1
    32     3    30    1
    33     4    31    1
    34     5    32    1
    35     6    33    1
    36     7    34    1
    37     8    35    1
    38     9    36    1
    39    17    37    1
    40    17    38    1
    41    18    39    1
    42    18    40    1
    43    19    41    1
    44    19    42    1
    45    20    43    1
    46    20    44    1
    47    21    45    1
    48    22    46    1
    49    26    47    1
