@<TRIPOS>MOLECULE
ChEBML234165
 45 48 0 0 0
SMALL
USER_CHARGES

@<TRIPOS>ATOM
      1 C         -13.2926   -6.2532    1.2911 C.1     1  LIG1        0.0991
      2 C         -11.0294   -6.0063    0.4088 C.ar    1  LIG1       -0.0425
      3 C          -9.8313   -5.2984    0.2771 C.ar    1  LIG1       -0.0389
      4 C          -2.7685   -0.6401   -1.4913 C.ar    1  LIG1       -0.0393
      5 C          -1.7102   -0.5248   -2.3926 C.ar    1  LIG1       -0.0401
      6 C         -11.9602   -4.2787    1.8392 C.ar    1  LIG1       -0.0352
      7 C         -10.3045   -2.3031    2.2392 C.ar    1  LIG1       -0.0304
      8 C          -3.9679    1.0889   -2.6784 C.ar    1  LIG1       -0.0207
      9 C         -12.0787   -5.5062    1.1773 C.ar    1  LIG1        0.0527
     10 C         -10.7617   -3.5472    1.7213 C.ar    1  LIG1       -0.0012
     11 C          -9.7269   -4.0729    0.9446 C.ar    1  LIG1        0.0377
     12 C          -3.8975    0.1667   -1.6343 C.ar    1  LIG1        0.0305
     13 C          -1.7807    0.3973   -3.4368 C.ar    1  LIG1        0.0593
     14 C          -2.9095    1.2042   -3.5797 C.ar    1  LIG1        0.0610
     15 C          -9.0248   -2.1016    1.7757 C.ar    1  LIG1        0.0524
     16 C          -4.5585   -0.3628    0.6144 C.3     1  LIG1        0.0509
     17 C          -6.1527   -0.5798   -1.2847 C.3     1  LIG1        0.0509
     18 C          -5.7286   -0.2146    1.5775 C.3     1  LIG1       -0.0177
     19 C          -7.3199   -0.4363   -0.3162 C.3     1  LIG1       -0.0177
     20 C          -8.0675   -0.9688    2.0025 C.3     1  LIG1        0.0052
     21 N         -14.2778   -6.8596    1.3833 N.1     1  LIG1       -0.1924
     22 N          -8.6854   -3.1742    0.9955 N.ar    1  LIG1       -0.3135
     23 N          -4.9469    0.0521   -0.7401 N.pl3   1  LIG1       -0.3202
     24 N          -6.9171   -0.9673    1.0354 N.4     1  LIG1        0.2525
     25 CL         -0.4372    0.4931   -4.5204 Cl      1  LIG1       -0.0827
     26 CL         -3.0557    2.3650   -4.8525 Cl      1  LIG1       -0.0826
     27 H         -11.1275   -6.9615   -0.1038 H       1  LIG1        0.0637
     28 H          -9.0150   -5.6888   -0.3214 H       1  LIG1        0.0643
     29 H          -2.7032   -1.3620   -0.6812 H       1  LIG1        0.0643
     30 H          -0.8381   -1.1616   -2.2661 H       1  LIG1        0.0639
     31 H         -12.7776   -3.8865    2.4395 H       1  LIG1        0.0643
     32 H         -10.8551   -1.6295    2.8817 H       1  LIG1        0.0648
     33 H          -4.8513    1.7150   -2.7841 H       1  LIG1        0.0658
     34 H          -3.7268    0.2546    0.9758 H       1  LIG1        0.0524
     35 H          -4.2141   -1.4052    0.5989 H       1  LIG1        0.0524
     36 H          -5.9590   -1.6424   -1.4822 H       1  LIG1        0.0524
     37 H          -6.4292   -0.1120   -2.2378 H       1  LIG1        0.0524
     38 H          -5.4821   -0.6408    2.5553 H       1  LIG1        0.0831
     39 H          -6.0271    0.8333    1.6976 H       1  LIG1        0.0831
     40 H          -7.6131    0.6118   -0.1854 H       1  LIG1        0.0831
     41 H          -8.1814   -1.0184   -0.6594 H       1  LIG1        0.0831
     42 H          -8.5680   -0.0003    1.8972 H       1  LIG1        0.0882
     43 H          -7.6337   -1.0127    3.0073 H       1  LIG1        0.0882
     44 H          -7.7993   -3.2923    0.5234 H       1  LIG1        0.1527
     45 H          -6.6348   -1.9497    0.9128 H       1  LIG1        0.2009
@<TRIPOS>BOND
     1     1     9    1
     2     1    21    3
     3     2     3   ar
     4     2     9   ar
     5     3    11   ar
     6     4     5   ar
     7     4    12   ar
     8     5    13   ar
     9     6     9   ar
    10     6    10   ar
    11     7    10   ar
    12     7    15   ar
    13     8    12   ar
    14     8    14   ar
    15    10    11   ar
    16    11    22   ar
    17    12    23    1
    18    13    14   ar
    19    13    25    1
    20    14    26    1
    21    15    20    1
    22    15    22   ar
    23    16    18    1
    24    16    23    1
    25    17    19    1
    26    17    23    1
    27    18    24    1
    28    19    24    1
    29    20    24    1
    30     2    27    1
    31     3    28    1
    32     4    29    1
    33     5    30    1
    34     6    31    1
    35     7    32    1
    36     8    33    1
    37    16    34    1
    38    16    35    1
    39    17    36    1
    40    17    37    1
    41    18    38    1
    42    18    39    1
    43    19    40    1
    44    19    41    1
    45    20    42    1
    46    20    43    1
    47    22    44    1
    48    24    45    1
