@<TRIPOS>MOLECULE
ChEBML512693
 36 38 0 0 0
SMALL
USER_CHARGES

@<TRIPOS>ATOM
      1 C          -4.6699   -0.6871   -2.5530 C.ar    1  LIG1       -0.0622
      2 C         -12.3953   -4.8037    1.3212 C.ar    1  LIG1       -0.0615
      3 C          -3.9953   -1.7149   -1.8941 C.ar    1  LIG1       -0.0619
      4 C          -5.4589    0.2061   -1.8283 C.ar    1  LIG1       -0.0619
      5 C         -11.5669   -5.3988    0.3718 C.ar    1  LIG1       -0.0603
      6 C         -11.9308   -3.7507    2.1177 C.ar    1  LIG1       -0.0530
      7 C          -4.1099   -1.8496   -0.5105 C.ar    1  LIG1       -0.0574
      8 C          -5.5735    0.0715   -0.4446 C.ar    1  LIG1       -0.0574
      9 C         -10.2519   -4.9624    0.1876 C.ar    1  LIG1       -0.0402
     10 C          -9.8254   -2.2774    2.5654 C.ar    1  LIG1       -0.0262
     11 C         -10.6085   -3.2937    1.9501 C.ar    1  LIG1       -0.0022
     12 C          -4.8989   -0.9564    0.2143 C.ar    1  LIG1       -0.0306
     13 C          -9.8012   -3.9088    0.9909 C.ar    1  LIG1        0.0378
     14 C          -8.5808   -2.2950    1.9790 C.ar    1  LIG1        0.0947
     15 C          -7.4549   -1.4625    2.2631 C.2     1  LIG1        0.2598
     16 C          -5.8178   -3.3745    2.2490 C.3     1  LIG1        0.0034
     17 C          -5.0229   -1.1009    1.7035 C.3     1  LIG1        0.0392
     18 N          -8.5760   -3.2822    1.0305 N.ar    1  LIG1       -0.3101
     19 N          -6.1403   -1.9649    2.0780 N.am    1  LIG1       -0.2954
     20 O          -7.6716   -0.2968    2.6590 O.2     1  LIG1       -0.2702
     21 H          -4.5795   -0.5816   -3.6302 H       1  LIG1        0.0622
     22 H         -13.4145   -5.1600    1.4455 H       1  LIG1        0.0623
     23 H          -3.3801   -2.4100   -2.4581 H       1  LIG1        0.0623
     24 H          -5.9833    1.0071   -2.3408 H       1  LIG1        0.0623
     25 H         -11.9482   -6.2154   -0.2356 H       1  LIG1        0.0623
     26 H         -12.5874   -3.2954    2.8539 H       1  LIG1        0.0629
     27 H          -3.5808   -2.6536   -0.0055 H       1  LIG1        0.0626
     28 H          -6.1906    0.7720    0.1118 H       1  LIG1        0.0626
     29 H          -9.6070   -5.4261   -0.5513 H       1  LIG1        0.0642
     30 H         -10.1429   -1.6068    3.3530 H       1  LIG1        0.0651
     31 H          -5.9380   -3.9051    1.3009 H       1  LIG1        0.0433
     32 H          -6.4807   -3.8264    2.9918 H       1  LIG1        0.0433
     33 H          -4.7841   -3.4875    2.5869 H       1  LIG1        0.0433
     34 H          -4.1082   -1.5297    2.1272 H       1  LIG1        0.0520
     35 H          -5.1774   -0.1277    2.1813 H       1  LIG1        0.0520
     36 H          -7.7885   -3.5201    0.4431 H       1  LIG1        0.1529
@<TRIPOS>BOND
     1     1     3   ar
     2     1     4   ar
     3     2     5   ar
     4     2     6   ar
     5     3     7   ar
     6     4     8   ar
     7     5     9   ar
     8     6    11   ar
     9     7    12   ar
    10     8    12   ar
    11     9    13   ar
    12    10    11   ar
    13    10    14   ar
    14    11    13   ar
    15    12    17    1
    16    13    18   ar
    17    14    15    1
    18    14    18   ar
    19    15    19   am
    20    15    20    2
    21    16    19    1
    22    17    19    1
    23     1    21    1
    24     2    22    1
    25     3    23    1
    26     4    24    1
    27     5    25    1
    28     6    26    1
    29     7    27    1
    30     8    28    1
    31     9    29    1
    32    10    30    1
    33    16    31    1
    34    16    32    1
    35    16    33    1
    36    17    34    1
    37    17    35    1
    38    18    36    1
