@<TRIPOS>MOLECULE
ChEBML1010619
 35 36 0 0 0
SMALL
USER_CHARGES

@<TRIPOS>ATOM
      1 C          -2.5102    0.8058   -3.4765 C.ar    1  LIG1       -0.0369
      2 C          -1.9501   -0.3653   -2.9783 C.ar    1  LIG1        0.0204
      3 C         -10.5847   -2.5094    1.7634 C.ar    1  LIG1       -0.0262
      4 C          -3.6448    1.2986   -2.8523 C.ar    1  LIG1        0.0296
      5 C          -8.9971   -3.8510    0.6073 C.ar    1  LIG1        0.0414
      6 C         -10.3085   -3.6387    1.0007 C.ar    1  LIG1        0.0754
      7 C          -2.5336   -0.9988   -1.8866 C.ar    1  LIG1        0.3027
      8 C          -9.5555   -1.6390    2.1045 C.ar    1  LIG1        0.0813
      9 C          -3.6670   -0.4250   -1.3336 C.ar    1  LIG1        0.1960
     10 C          -8.2776   -1.9408    1.6618 C.ar    1  LIG1        0.1362
     11 C          -5.6187   -0.8253    0.1685 C.3     1  LIG1        0.0255
     12 C          -5.8705   -1.2874    1.5938 C.3     1  LIG1        0.0253
     13 C         -11.3871   -4.5892    0.6191 C.3     1  LIG1        0.4175
     14 N          -4.2397    0.7113   -1.7899 N.ar    1  LIG1       -0.2350
     15 N          -7.9708   -3.0281    0.9194 N.ar    1  LIG1       -0.2394
     16 N          -4.2581   -1.0470   -0.2416 N.pl3   1  LIG1       -0.3222
     17 N          -7.2367   -1.0829    1.9931 N.pl3   1  LIG1       -0.3267
     18 N          -1.9590   -2.1969   -1.3819 N.pl3   1  LIG1        0.1060
     19 O          -0.9329   -2.6580   -1.9362 O.2     1  LIG1        0.0315
     20 O          -2.4946   -2.7583   -0.3966 O.2     1  LIG1       -0.5802
     21 F         -12.6234   -4.2366    1.0855 F       1  LIG1       -0.1661
     22 F         -11.5467   -4.7277   -0.7319 F       1  LIG1       -0.1661
     23 F         -11.1693   -5.8534    1.0899 F       1  LIG1       -0.1661
     24 CL         -9.9147   -0.2442    3.0499 Cl      1  LIG1       -0.0805
     25 H          -2.0714    1.3170   -4.3258 H       1  LIG1        0.0641
     26 H          -1.0599   -0.7730   -3.4506 H       1  LIG1        0.0697
     27 H         -11.6041   -2.3142    2.0880 H       1  LIG1        0.0646
     28 H          -4.1205    2.2085   -3.2028 H       1  LIG1        0.0840
     29 H          -8.7215   -4.7152    0.0109 H       1  LIG1        0.0847
     30 H          -5.8252    0.2434    0.0527 H       1  LIG1        0.0482
     31 H          -6.2576   -1.3808   -0.5252 H       1  LIG1        0.0482
     32 H          -5.6656   -2.3584    1.6868 H       1  LIG1        0.0482
     33 H          -5.2358   -0.7497    2.3055 H       1  LIG1        0.0482
     34 H          -3.6908   -1.6957    0.2976 H       1  LIG1        0.1483
     35 H          -7.4593   -0.2635    2.5523 H       1  LIG1        0.1481
@<TRIPOS>BOND
     1     1     2   ar
     2     1     4   ar
     3     2     7   ar
     4     3     6   ar
     5     3     8   ar
     6     4    14   ar
     7     5     6   ar
     8     5    15   ar
     9     6    13    1
    10     7     9   ar
    11     7    18    1
    12     8    10   ar
    13     8    24    1
    14     9    14   ar
    15     9    16    1
    16    10    15   ar
    17    10    17    1
    18    11    12    1
    19    11    16    1
    20    12    17    1
    21    13    21    1
    22    13    22    1
    23    13    23    1
    24    18    19    2
    25    18    20    2
    26     1    25    1
    27     2    26    1
    28     3    27    1
    29     4    28    1
    30     5    29    1
    31    11    30    1
    32    11    31    1
    33    12    32    1
    34    12    33    1
    35    16    34    1
    36    17    35    1
