@<TRIPOS>MOLECULE
ChEBML367378
 46 48 0 0 0
SMALL
USER_CHARGES

@<TRIPOS>ATOM
      1 C          -2.5197    1.1568   -3.1197 C.ar    1  LIG1       -0.0622
      2 C          -3.8312    0.7566   -3.3752 C.ar    1  LIG1       -0.0620
      3 C          -1.8396    0.6512   -2.0116 C.ar    1  LIG1       -0.0620
      4 C          -4.4628   -0.1490   -2.5228 C.ar    1  LIG1       -0.0589
      5 C          -2.4711   -0.2545   -1.1592 C.ar    1  LIG1       -0.0589
      6 C          -9.6629   -2.3407    2.5916 C.ar    1  LIG1       -0.0194
      7 C          -3.7827   -0.6546   -1.4148 C.ar    1  LIG1       -0.0456
      8 C         -10.0538   -3.6645    0.8012 C.ar    1  LIG1        0.0608
      9 C         -10.5653   -3.2739    2.0048 C.ar    1  LIG1        0.0374
     10 C         -10.8646   -4.6014    0.1087 C.ar    1  LIG1        0.0609
     11 C          -8.6286   -2.2140    1.6899 C.ar    1  LIG1        0.0953
     12 C         -11.9907   -4.8834    0.8525 C.ar    1  LIG1        0.0713
     13 C          -7.4321   -1.3668    1.8170 C.2     1  LIG1        0.2602
     14 C          -4.2546   -0.6341    1.8054 C.2     1  LIG1        0.2348
     15 C          -6.0224   -3.2454    1.0701 C.3     1  LIG1        0.0039
     16 C          -3.7997    1.0803    3.5753 C.3     1  LIG1        0.0024
     17 C          -4.4142    1.8191    1.3096 C.3     1  LIG1        0.0024
     18 C          -4.4657   -1.6345   -0.4917 C.3     1  LIG1       -0.0002
     19 C          -5.2155   -0.9482    0.6568 C.3     1  LIG1        0.1063
     20 N          -8.8609   -3.0140    0.6035 N.ar    1  LIG1       -0.3087
     21 N          -6.2479   -1.8052    1.1948 N.am    1  LIG1       -0.2875
     22 N          -4.1598    0.7006    2.2141 N.am    1  LIG1       -0.3064
     23 O          -7.5687   -0.3240    2.4558 O.2     1  LIG1       -0.2701
     24 O          -3.5740   -1.5377    2.3033 O.2     1  LIG1       -0.2752
     25 S         -12.0787   -4.0423    2.3523 S.2     1  LIG1       -0.0791
     26 BR        -10.3958   -5.3063   -1.5770 Br      1  LIG1       -0.0469
     27 BR        -13.3772   -6.0918    0.3292 Br      1  LIG1       -0.0415
     28 H          -2.0276    1.8609   -3.7842 H       1  LIG1        0.0622
     29 H          -4.3605    1.1494   -4.2385 H       1  LIG1        0.0623
     30 H          -0.8181    0.9617   -1.8129 H       1  LIG1        0.0623
     31 H          -5.4849   -0.4549   -2.7296 H       1  LIG1        0.0625
     32 H          -1.9336   -0.6430   -0.2983 H       1  LIG1        0.0625
     33 H          -9.7612   -1.8352    3.5420 H       1  LIG1        0.0657
     34 H          -6.4407   -3.6110    0.1287 H       1  LIG1        0.0433
     35 H          -6.5013   -3.7760    1.8975 H       1  LIG1        0.0433
     36 H          -4.9511   -3.4631    1.0873 H       1  LIG1        0.0433
     37 H          -2.7154    1.1890    3.6606 H       1  LIG1        0.0433
     38 H          -4.1334    0.3155    4.2818 H       1  LIG1        0.0433
     39 H          -4.2706    2.0309    3.8395 H       1  LIG1        0.0433
     40 H          -5.4711    2.0960    1.3423 H       1  LIG1        0.0433
     41 H          -4.1545    1.5426    0.2841 H       1  LIG1        0.0433
     42 H          -3.8143    2.6853    1.6016 H       1  LIG1        0.0433
     43 H          -5.1560   -2.2630   -1.0709 H       1  LIG1        0.0340
     44 H          -3.7093   -2.3282   -0.1029 H       1  LIG1        0.0340
     45 H          -5.7359   -0.0412    0.3366 H       1  LIG1        0.0610
     46 H          -8.2807   -3.1318   -0.2180 H       1  LIG1        0.1530
@<TRIPOS>BOND
     1     1     2   ar
     2     1     3   ar
     3     2     4   ar
     4     3     5   ar
     5     4     7   ar
     6     5     7   ar
     7     6     9   ar
     8     6    11   ar
     9     7    18    1
    10     8     9   ar
    11     8    10   ar
    12     8    20   ar
    13     9    25   ar
    14    10    12   ar
    15    10    26    1
    16    11    13    1
    17    11    20   ar
    18    12    25   ar
    19    12    27    1
    20    13    21   am
    21    13    23    2
    22    14    19    1
    23    14    22   am
    24    14    24    2
    25    15    21    1
    26    16    22    1
    27    17    22    1
    28    18    19    1
    29    19    21    1
    30     1    28    1
    31     2    29    1
    32     3    30    1
    33     4    31    1
    34     5    32    1
    35     6    33    1
    36    15    34    1
    37    15    35    1
    38    15    36    1
    39    16    37    1
    40    16    38    1
    41    16    39    1
    42    17    40    1
    43    17    41    1
    44    17    42    1
    45    18    43    1
    46    18    44    1
    47    19    45    1
    48    20    46    1
