@<TRIPOS>MOLECULE
ChEBML369924
 51 54 0 0 0
SMALL
USER_CHARGES

@<TRIPOS>ATOM
      1 C         -12.2057   -3.3124    2.3030 C.ar    1  LIG1       -0.0504
      2 C          -2.3848   -0.7587   -3.3487 C.ar    1  LIG1       -0.0564
      3 C          -3.2562    1.3356   -2.5768 C.ar    1  LIG1       -0.0564
      4 C         -12.7352   -4.5374    2.0256 C.ar    1  LIG1       -0.0313
      5 C          -1.1083   -0.2306   -3.3492 C.ar    1  LIG1       -0.0315
      6 C          -1.9808    1.8666   -2.5696 C.ar    1  LIG1       -0.0315
      7 C         -10.0413   -1.9048    2.1554 C.ar    1  LIG1       -0.0262
      8 C         -10.6284   -5.2895    1.1258 C.ar    1  LIG1       -0.0100
      9 C         -10.8643   -3.0450    1.9956 C.ar    1  LIG1       -0.0020
     10 C          -3.4576    0.0234   -2.9629 C.ar    1  LIG1       -0.0475
     11 C         -10.0702   -4.0456    1.4008 C.ar    1  LIG1        0.0404
     12 C          -0.9033    1.0856   -2.9618 C.ar    1  LIG1        0.0746
     13 C         -11.9533   -5.5312    1.4373 C.ar    1  LIG1        0.0732
     14 C          -8.8077   -2.2133    1.6754 C.ar    1  LIG1        0.0947
     15 C          -7.6518   -1.3069    1.6512 C.2     1  LIG1        0.2598
     16 C          -5.1579   -0.0862   -0.5291 C.3     1  LIG1       -0.0341
     17 C          -6.5048   -1.8767   -1.6386 C.3     1  LIG1       -0.0341
     18 C          -5.4173   -0.7203    0.8411 C.3     1  LIG1        0.0147
     19 C          -6.7794   -2.5310   -0.2810 C.3     1  LIG1        0.0147
     20 C          -5.1424   -1.1806   -1.5986 C.3     1  LIG1       -0.0344
     21 C           1.2295    0.5723   -3.4079 C.3     1  LIG1        0.0422
     22 C          -4.8492   -0.5552   -2.9638 C.3     1  LIG1       -0.0249
     23 N          -8.8161   -3.5151    1.2082 N.ar    1  LIG1       -0.3100
     24 N          -6.6531   -1.5118    0.7695 N.am    1  LIG1       -0.2967
     25 O          -7.5960   -0.3712    2.4270 O.2     1  LIG1       -0.2702
     26 O         -12.4977   -6.7463    1.1688 O.3     1  LIG1       -0.3608
     27 O           0.3516    1.6074   -2.9609 O.3     1  LIG1       -0.3493
     28 H         -12.8185   -2.5492    2.7592 H       1  LIG1        0.0630
     29 H          -2.5449   -1.7834   -3.6503 H       1  LIG1        0.0626
     30 H          -4.0959    1.9446   -2.2761 H       1  LIG1        0.0626
     31 H         -13.7689   -4.7402    2.2635 H       1  LIG1        0.0650
     32 H          -0.2706   -0.8418   -3.6514 H       1  LIG1        0.0650
     33 H          -1.8233    2.8903   -2.2637 H       1  LIG1        0.0650
     34 H         -10.3400   -0.9590    2.5828 H       1  LIG1        0.0651
     35 H         -10.0289   -6.0639    0.6707 H       1  LIG1        0.0670
     36 H          -4.1951    0.4246   -0.5172 H       1  LIG1        0.0285
     37 H          -5.9478    0.6307   -0.7536 H       1  LIG1        0.0285
     38 H          -7.2820   -1.1429   -1.8526 H       1  LIG1        0.0285
     39 H          -6.5006   -2.6403   -2.4164 H       1  LIG1        0.0285
     40 H          -4.5829   -1.3691    1.1074 H       1  LIG1        0.0469
     41 H          -5.5278    0.0628    1.5911 H       1  LIG1        0.0469
     42 H          -6.0560   -3.3275   -0.1063 H       1  LIG1        0.0469
     43 H          -7.7886   -2.9427   -0.2713 H       1  LIG1        0.0469
     44 H          -4.3687   -1.9104   -1.3598 H       1  LIG1        0.0307
     45 H           1.1637   -0.2782   -2.7293 H       1  LIG1        0.0535
     46 H           0.9411    0.2595   -4.4114 H       1  LIG1        0.0535
     47 H           2.2533    0.9459   -3.4239 H       1  LIG1        0.0535
     48 H          -5.5716    0.2363   -3.1635 H       1  LIG1        0.0319
     49 H          -4.9245   -1.3194   -3.7373 H       1  LIG1        0.0319
     50 H          -8.0615   -3.9780    0.8116 H       1  LIG1        0.1529
     51 H         -12.8619   -6.6980    0.2742 H       1  LIG1        0.2182
@<TRIPOS>BOND
     1     1     4   ar
     2     1     9   ar
     3     2     5   ar
     4     2    10   ar
     5     3     6   ar
     6     3    10   ar
     7     4    13   ar
     8     5    12   ar
     9     6    12   ar
    10     7     9   ar
    11     7    14   ar
    12     8    11   ar
    13     8    13   ar
    14     9    11   ar
    15    10    22    1
    16    11    23   ar
    17    12    27    1
    18    13    26    1
    19    14    15    1
    20    14    23   ar
    21    15    24   am
    22    15    25    2
    23    16    18    1
    24    16    20    1
    25    17    19    1
    26    17    20    1
    27    18    24    1
    28    19    24    1
    29    20    22    1
    30    21    27    1
    31     1    28    1
    32     2    29    1
    33     3    30    1
    34     4    31    1
    35     5    32    1
    36     6    33    1
    37     7    34    1
    38     8    35    1
    39    16    36    1
    40    16    37    1
    41    17    38    1
    42    17    39    1
    43    18    40    1
    44    18    41    1
    45    19    42    1
    46    19    43    1
    47    20    44    1
    48    21    45    1
    49    21    46    1
    50    21    47    1
    51    22    48    1
    52    22    49    1
    53    23    50    1
    54    26    51    1
