@<TRIPOS>MOLECULE
ChEBML373716
 47 49 0 0 0
SMALL
USER_CHARGES

@<TRIPOS>ATOM
      1 C         -12.6097   -4.8702    0.9110 C.ar    1  LIG1       -0.0616
      2 C         -11.6164   -5.5352    0.1984 C.ar    1  LIG1       -0.0616
      3 C         -12.2827   -3.7702    1.7044 C.ar    1  LIG1       -0.0544
      4 C         -10.2923   -5.1029    0.2765 C.ar    1  LIG1       -0.0543
      5 C         -10.6080   -2.2158    2.5884 C.ar    1  LIG1       -0.0525
      6 C          -9.2838   -1.7834    2.6665 C.ar    1  LIG1       -0.0389
      7 C          -8.6174   -3.5486    1.1606 C.ar    1  LIG1       -0.0317
      8 C         -10.9552   -3.3212    1.7947 C.ar    1  LIG1       -0.0182
      9 C          -9.9450   -3.9975    1.0701 C.ar    1  LIG1       -0.0165
     10 C          -8.2904   -2.4485    1.9540 C.ar    1  LIG1        0.0551
     11 C          -5.9180   -2.2355   -0.5445 C.3     1  LIG1        0.0422
     12 C          -5.6842    0.0340    0.3970 C.3     1  LIG1        0.0422
     13 C          -4.4288   -2.4772   -0.3315 C.3     1  LIG1        0.0419
     14 C          -4.1949   -0.2078    0.6100 C.3     1  LIG1        0.0419
     15 C           0.3921   -1.8391   -1.8993 C.3     1  LIG1       -0.0639
     16 C          -1.1265   -1.8805   -1.8673 C.3     1  LIG1       -0.0390
     17 C          -1.7244   -0.4953   -2.0498 C.3     1  LIG1        0.0335
     18 N          -6.4144   -1.2654    0.4756 N.3     1  LIG1       -0.2736
     19 N          -3.6985   -1.1778   -0.4101 N.3     1  LIG1       -0.2778
     20 O          -6.5621   -0.8138    3.0094 O.2     1  LIG1       -0.4762
     21 O          -5.7722   -3.0661    2.2025 O.2     1  LIG1       -0.4762
     22 O          -3.9827    0.8182   -2.0075 O.2     1  LIG1       -0.4812
     23 O          -3.9512   -1.5278   -2.9460 O.2     1  LIG1       -0.4812
     24 S          -6.6157   -1.8997    2.0545 S.O2    1  LIG1       -0.1657
     25 S          -3.4967   -0.5436   -1.9890 S.O2    1  LIG1       -0.1945
     26 H         -13.6406   -5.2068    0.8489 H       1  LIG1        0.0623
     27 H         -11.8721   -6.3907   -0.4200 H       1  LIG1        0.0623
     28 H         -13.0755   -3.2653    2.2526 H       1  LIG1        0.0629
     29 H          -9.5324   -5.6380   -0.2893 H       1  LIG1        0.0629
     30 H         -11.3681   -1.6801    3.1529 H       1  LIG1        0.0630
     31 H          -9.0394   -0.9258    3.2879 H       1  LIG1        0.0642
     32 H          -7.8323   -4.0607    0.6069 H       1  LIG1        0.0648
     33 H          -6.1077   -1.8373   -1.5483 H       1  LIG1        0.0499
     34 H          -6.4540   -3.1846   -0.4379 H       1  LIG1        0.0499
     35 H          -6.0528    0.7092    1.1763 H       1  LIG1        0.0499
     36 H          -5.8666    0.4955   -0.5807 H       1  LIG1        0.0499
     37 H          -4.2465   -2.9394    0.6459 H       1  LIG1        0.0499
     38 H          -4.0597   -3.1519   -1.1114 H       1  LIG1        0.0499
     39 H          -3.6581    0.7410    0.5035 H       1  LIG1        0.0499
     40 H          -4.0060   -0.6062    1.6138 H       1  LIG1        0.0499
     41 H           0.7399   -1.4142   -2.8460 H       1  LIG1        0.0231
     42 H           0.7847   -1.2216   -1.0850 H       1  LIG1        0.0231
     43 H           0.8142   -2.8447   -1.8027 H       1  LIG1        0.0231
     44 H          -1.4584   -2.3082   -0.9139 H       1  LIG1        0.0279
     45 H          -1.4886   -2.5506   -2.6561 H       1  LIG1        0.0279
     46 H          -1.3977    0.1868   -1.2592 H       1  LIG1        0.0479
     47 H          -1.4512   -0.0681   -3.0193 H       1  LIG1        0.0479
@<TRIPOS>BOND
     1     1     2   ar
     2     1     3   ar
     3     2     4   ar
     4     3     8   ar
     5     4     9   ar
     6     5     6   ar
     7     5     8   ar
     8     6    10   ar
     9     7     9   ar
    10     7    10   ar
    11     8     9   ar
    12    10    24    1
    13    11    13    1
    14    11    18    1
    15    12    14    1
    16    12    18    1
    17    13    19    1
    18    14    19    1
    19    15    16    1
    20    16    17    1
    21    17    25    1
    22    18    24    1
    23    19    25    1
    24    20    24    2
    25    21    24    2
    26    22    25    2
    27    23    25    2
    28     1    26    1
    29     2    27    1
    30     3    28    1
    31     4    29    1
    32     5    30    1
    33     6    31    1
    34     7    32    1
    35    11    33    1
    36    11    34    1
    37    12    35    1
    38    12    36    1
    39    13    37    1
    40    13    38    1
    41    14    39    1
    42    14    40    1
    43    15    41    1
    44    15    42    1
    45    15    43    1
    46    16    44    1
    47    16    45    1
    48    17    46    1
    49    17    47    1
