@<TRIPOS>MOLECULE
ChEBML1228934
 37 40 0 0 0
SMALL
USER_CHARGES

@<TRIPOS>ATOM
      1 C          -2.7768    0.3942   -3.7086 C.ar    1  LIG1       -0.0621
      2 C          -1.8312   -0.1236   -2.8235 C.ar    1  LIG1       -0.0603
      3 C          -4.0454    0.7452   -3.2472 C.ar    1  LIG1       -0.0603
      4 C         -10.9234   -5.1163    0.4606 C.ar    1  LIG1       -0.0337
      5 C          -2.1543   -0.2905   -1.4770 C.ar    1  LIG1       -0.0386
      6 C          -4.3685    0.5783   -1.9005 C.ar    1  LIG1       -0.0386
      7 C         -12.2844   -5.2312    0.7586 C.ar    1  LIG1       -0.0413
      8 C         -12.2167   -3.1736    2.0394 C.ar    1  LIG1       -0.0272
      9 C         -10.1885   -4.0169    0.9549 C.ar    1  LIG1        0.0799
     10 C          -3.4230    0.0604   -1.0154 C.ar    1  LIG1        0.0558
     11 C         -10.8499   -3.0645    1.7362 C.ar    1  LIG1        0.0423
     12 C         -12.9206   -4.2712    1.5379 C.ar    1  LIG1        0.0418
     13 C          -8.4935   -2.6612    1.3495 C.ar    1  LIG1        0.1648
     14 C          -3.0609   -0.1665    2.6459 C.ar    1  LIG1        0.0041
     15 C          -2.8076   -0.0199    1.3446 C.ar    1  LIG1        0.0242
     16 C          -4.4617   -0.4391    2.9752 C.ar    1  LIG1        0.2121
     17 C          -5.4262   -0.5661    1.8317 C.ar    1  LIG1        0.1916
     18 C          -6.8567   -0.8835    2.0231 C.2     1  LIG1        0.2731
     19 N          -8.8397   -3.7720    0.7421 N.ar    1  LIG1       -0.2252
     20 N          -5.0643   -0.4056    0.5971 N.ar    1  LIG1       -0.1674
     21 N          -3.7465   -0.1062    0.3311 N.ar    1  LIG1       -0.2003
     22 N          -7.2555   -2.0760    1.3786 N.am    1  LIG1       -0.2586
     23 O          -4.8656   -0.5688    4.1188 O.2     1  LIG1       -0.2871
     24 O          -7.5544   -0.1305    2.6916 O.2     1  LIG1       -0.2694
     25 S          -9.7283   -1.8411    2.2029 S.2     1  LIG1       -0.0518
     26 CL        -14.5990   -4.4359    1.8916 Cl      1  LIG1       -0.0843
     27 H          -2.5250    0.5239   -4.7573 H       1  LIG1        0.0622
     28 H          -0.8437   -0.3970   -3.1830 H       1  LIG1        0.0623
     29 H          -4.7816    1.1486   -3.9365 H       1  LIG1        0.0623
     30 H         -10.4360   -5.8723   -0.1485 H       1  LIG1        0.0646
     31 H          -1.4105   -0.6950   -0.7954 H       1  LIG1        0.0643
     32 H          -5.3603    0.8556   -1.5522 H       1  LIG1        0.0643
     33 H         -12.8354   -6.0847    0.3705 H       1  LIG1        0.0639
     34 H         -12.7087   -2.4206    2.6485 H       1  LIG1        0.0651
     35 H          -2.3106   -0.0878    3.4194 H       1  LIG1        0.0679
     36 H          -1.8005    0.1916    0.9994 H       1  LIG1        0.0815
     37 H          -6.4900   -2.5548    0.8652 H       1  LIG1        0.1581
@<TRIPOS>BOND
     1     1     2   ar
     2     1     3   ar
     3     2     5   ar
     4     3     6   ar
     5     4     7   ar
     6     4     9   ar
     7     5    10   ar
     8     6    10   ar
     9     7    12   ar
    10     8    11   ar
    11     8    12   ar
    12     9    11   ar
    13     9    19   ar
    14    10    21    1
    15    11    25   ar
    16    12    26    1
    17    13    19   ar
    18    13    22    1
    19    13    25   ar
    20    14    15   ar
    21    14    16   ar
    22    15    21   ar
    23    16    17   ar
    24    16    23    2
    25    17    18    1
    26    17    20   ar
    27    18    22   am
    28    18    24    2
    29    20    21   ar
    30     1    27    1
    31     2    28    1
    32     3    29    1
    33     4    30    1
    34     5    31    1
    35     6    32    1
    36     7    33    1
    37     8    34    1
    38    14    35    1
    39    15    36    1
    40    22    37    1
