@<TRIPOS>MOLECULE
ChEBML1919
 48 51 0 0 0
SMALL
USER_CHARGES

@<TRIPOS>ATOM
      1 C          -3.1816   -1.0799   -2.3903 C.ar    1  LIG1       -0.0615
      2 C          -2.4554   -0.6346   -1.2874 C.ar    1  LIG1       -0.0603
      3 C          -4.5448   -1.3763   -2.2781 C.ar    1  LIG1       -0.0530
      4 C          -3.0659   -0.4715   -0.0406 C.ar    1  LIG1       -0.0402
      5 C         -10.2182   -5.2436    0.5955 C.ar    1  LIG1       -0.0376
      6 C         -11.5500   -5.6439    0.7366 C.ar    1  LIG1       -0.0299
      7 C         -12.1410   -3.5204    1.7555 C.ar    1  LIG1       -0.0226
      8 C          -6.5112   -1.4206   -0.5648 C.ar    1  LIG1       -0.0276
      9 C         -10.1063   -1.9008    1.9588 C.ar    1  LIG1       -0.0275
     10 C          -5.1818   -1.2197   -1.0311 C.ar    1  LIG1       -0.0022
     11 C         -10.8043   -3.0948    1.6237 C.ar    1  LIG1        0.0003
     12 C          -4.4292   -0.7719    0.0566 C.ar    1  LIG1        0.0378
     13 C          -9.8756   -3.9644    1.0480 C.ar    1  LIG1        0.0379
     14 C         -12.4983   -4.7973    1.3073 C.ar    1  LIG1        0.0760
     15 C          -6.5393   -1.0972    0.7722 C.ar    1  LIG1        0.0811
     16 C          -8.7919   -2.0658    1.5872 C.ar    1  LIG1        0.0811
     17 C          -7.7100   -1.1424    1.7216 C.2     1  LIG1        0.2206
     18 C         -15.2515   -4.2562   -1.4914 C.3     1  LIG1       -0.0456
     19 C         -17.4893   -4.2856   -0.3996 C.3     1  LIG1       -0.0456
     20 C         -15.7587   -5.9488    0.2635 C.3     1  LIG1       -0.0102
     21 C         -14.2670   -6.1391    0.4548 C.3     1  LIG1        0.0922
     22 N          -5.2789   -0.7067    1.1379 N.ar    1  LIG1       -0.3112
     23 N          -8.6625   -3.3134    1.0386 N.ar    1  LIG1       -0.3112
     24 N         -16.0178   -4.5731   -0.2311 N.4     1  LIG1        0.2434
     25 O          -7.6797   -0.3069    2.6552 O.2     1  LIG1       -0.2856
     26 O         -13.7893   -5.2164    1.4312 O.3     1  LIG1       -0.3406
     27 H          -2.6849   -1.1981   -3.3498 H       1  LIG1        0.0623
     28 H          -1.3977   -0.4105   -1.3972 H       1  LIG1        0.0623
     29 H          -5.0991   -1.7222   -3.1461 H       1  LIG1        0.0629
     30 H          -2.5003   -0.1254    0.8180 H       1  LIG1        0.0642
     31 H          -9.4807   -5.9032    0.1507 H       1  LIG1        0.0643
     32 H         -11.8427   -6.6335    0.3929 H       1  LIG1        0.0651
     33 H         -12.8866   -2.8657    2.1987 H       1  LIG1        0.0657
     34 H          -7.3541   -1.7652   -1.1489 H       1  LIG1        0.0651
     35 H         -10.5253   -1.0175    2.4225 H       1  LIG1        0.0651
     36 H         -15.5910   -4.9420   -2.2699 H       1  LIG1        0.0777
     37 H         -15.4648   -3.2200   -1.7606 H       1  LIG1        0.0777
     38 H         -14.1896   -4.3965   -1.2809 H       1  LIG1        0.0777
     39 H         -17.8794   -4.9719   -1.1534 H       1  LIG1        0.0777
     40 H         -17.9736   -4.4457    0.5656 H       1  LIG1        0.0777
     41 H         -17.5920   -3.2480   -0.7229 H       1  LIG1        0.0777
     42 H         -16.3106   -6.0478    1.2025 H       1  LIG1        0.0839
     43 H         -16.1608   -6.6333   -0.4881 H       1  LIG1        0.0839
     44 H         -14.0653   -7.1512    0.8196 H       1  LIG1        0.0628
     45 H         -13.7166   -5.9858   -0.4792 H       1  LIG1        0.0628
     46 H          -5.0077   -0.4136    2.0665 H       1  LIG1        0.1529
     47 H          -7.8027   -3.7035    0.6777 H       1  LIG1        0.1529
     48 H         -15.6767   -3.9106    0.4860 H       1  LIG1        0.1998
@<TRIPOS>BOND
     1     1     2   ar
     2     1     3   ar
     3     2     4   ar
     4     3    10   ar
     5     4    12   ar
     6     5     6   ar
     7     5    13   ar
     8     6    14   ar
     9     7    11   ar
    10     7    14   ar
    11     8    10   ar
    12     8    15   ar
    13     9    11   ar
    14     9    16   ar
    15    10    12   ar
    16    11    13   ar
    17    12    22   ar
    18    13    23   ar
    19    14    26    1
    20    15    17    1
    21    15    22   ar
    22    16    17    1
    23    16    23   ar
    24    17    25    2
    25    18    24    1
    26    19    24    1
    27    20    21    1
    28    20    24    1
    29    21    26    1
    30     1    27    1
    31     2    28    1
    32     3    29    1
    33     4    30    1
    34     5    31    1
    35     6    32    1
    36     7    33    1
    37     8    34    1
    38     9    35    1
    39    18    36    1
    40    18    37    1
    41    18    38    1
    42    19    39    1
    43    19    40    1
    44    19    41    1
    45    20    42    1
    46    20    43    1
    47    21    44    1
    48    21    45    1
    49    22    46    1
    50    23    47    1
    51    24    48    1
