@<TRIPOS>MOLECULE
ChEBML369998
 45 48 0 0 0
SMALL
USER_CHARGES

@<TRIPOS>ATOM
      1 C          -0.3681    0.6068   -3.0464 C.ar    1  LIG1       -0.0622
      2 C          -0.9106    1.3944   -2.0311 C.ar    1  LIG1       -0.0620
      3 C          -1.2059   -0.1531   -3.8627 C.ar    1  LIG1       -0.0620
      4 C          -2.2910    1.4220   -1.8319 C.ar    1  LIG1       -0.0590
      5 C          -2.5862   -0.1256   -3.6635 C.ar    1  LIG1       -0.0590
      6 C         -10.3590   -5.0713    0.7415 C.ar    1  LIG1       -0.0326
      7 C         -11.6728   -5.5348    0.8575 C.ar    1  LIG1       -0.0299
      8 C         -12.3607   -3.4444    1.8754 C.ar    1  LIG1       -0.0158
      9 C          -3.1288    0.6620   -2.6481 C.ar    1  LIG1       -0.0477
     10 C         -10.0306   -3.7757    1.1962 C.ar    1  LIG1        0.0787
     11 C         -12.6590   -4.7303    1.4175 C.ar    1  LIG1        0.0726
     12 C         -11.0392   -2.9853    1.7555 C.ar    1  LIG1        0.0422
     13 C          -8.8397   -1.9767    1.6565 C.ar    1  LIG1        0.1643
     14 C          -7.7027   -1.1081    1.7469 C.2     1  LIG1        0.2711
     15 C          -6.5574   -0.7086   -1.6334 C.3     1  LIG1       -0.0341
     16 C          -4.7842    0.0425   -0.0016 C.3     1  LIG1       -0.0341
     17 C          -7.0391   -1.7252   -0.5999 C.3     1  LIG1        0.0148
     18 C          -5.3011   -0.9970    0.9899 C.3     1  LIG1        0.0148
     19 C          -5.0654   -0.3874   -1.4504 C.3     1  LIG1       -0.0344
     20 C          -4.6172    0.6911   -2.4337 C.3     1  LIG1       -0.0249
     21 N          -8.7767   -3.1844    1.1463 N.ar    1  LIG1       -0.2349
     22 N          -6.7257   -1.2699    0.7556 N.am    1  LIG1       -0.2960
     23 O          -7.6198   -0.2812    2.6532 O.2     1  LIG1       -0.2692
     24 O         -13.9345   -5.1998    1.5213 O.3     1  LIG1       -0.3608
     25 S         -10.3709   -1.4660    2.2225 S.2     1  LIG1       -0.0623
     26 H           0.7066    0.5865   -3.2022 H       1  LIG1        0.0622
     27 H          -0.2586    1.9872   -1.3961 H       1  LIG1        0.0623
     28 H          -0.7840   -0.7656   -4.6540 H       1  LIG1        0.0623
     29 H          -2.7048    2.0384   -1.0382 H       1  LIG1        0.0625
     30 H          -3.2312   -0.7211   -4.3043 H       1  LIG1        0.0625
     31 H          -9.5961   -5.7081    0.3027 H       1  LIG1        0.0647
     32 H         -11.9167   -6.5333    0.5038 H       1  LIG1        0.0651
     33 H         -13.1325   -2.8173    2.3122 H       1  LIG1        0.0663
     34 H          -6.7382   -1.0984   -2.6419 H       1  LIG1        0.0285
     35 H          -7.1463    0.2125   -1.5328 H       1  LIG1        0.0285
     36 H          -5.2705    1.0060    0.1986 H       1  LIG1        0.0285
     37 H          -3.7075    0.1864    0.1462 H       1  LIG1        0.0285
     38 H          -8.1147   -1.8903   -0.7172 H       1  LIG1        0.0469
     39 H          -6.5401   -2.6903   -0.7473 H       1  LIG1        0.0469
     40 H          -4.7632   -1.9447    0.8674 H       1  LIG1        0.0469
     41 H          -5.1173   -0.6501    2.0096 H       1  LIG1        0.0469
     42 H          -4.4881   -1.2978   -1.6594 H       1  LIG1        0.0307
     43 H          -4.9215    1.6742   -2.0602 H       1  LIG1        0.0319
     44 H          -5.1347    0.5518   -3.3885 H       1  LIG1        0.0319
     45 H         -14.5051   -4.5301    1.9291 H       1  LIG1        0.2182
@<TRIPOS>BOND
     1     1     2   ar
     2     1     3   ar
     3     2     4   ar
     4     3     5   ar
     5     4     9   ar
     6     5     9   ar
     7     6     7   ar
     8     6    10   ar
     9     7    11   ar
    10     8    11   ar
    11     8    12   ar
    12     9    20    1
    13    10    12   ar
    14    10    21   ar
    15    11    24    1
    16    12    25   ar
    17    13    14    1
    18    13    21   ar
    19    13    25   ar
    20    14    22   am
    21    14    23    2
    22    15    17    1
    23    15    19    1
    24    16    18    1
    25    16    19    1
    26    17    22    1
    27    18    22    1
    28    19    20    1
    29     1    26    1
    30     2    27    1
    31     3    28    1
    32     4    29    1
    33     5    30    1
    34     6    31    1
    35     7    32    1
    36     8    33    1
    37    15    34    1
    38    15    35    1
    39    16    36    1
    40    16    37    1
    41    17    38    1
    42    17    39    1
    43    18    40    1
    44    18    41    1
    45    19    42    1
    46    20    43    1
    47    20    44    1
    48    24    45    1
