@<TRIPOS>MOLECULE
ChEBML204991
 69 72 0 0 0
SMALL
USER_CHARGES

@<TRIPOS>ATOM
      1 C           0.0673   -1.6871   -3.1671 C.ar    1  LIG1       -0.0418
      2 C         -10.2602   -5.3966    1.1090 C.ar    1  LIG1       -0.0383
      3 C           0.1119   -0.9793   -1.9712 C.ar    1  LIG1       -0.0360
      4 C         -11.6251   -5.6590    0.9600 C.ar    1  LIG1       -0.0377
      5 C         -12.1709   -3.3162    1.2921 C.ar    1  LIG1       -0.0304
      6 C         -10.0595   -1.8382    1.6943 C.ar    1  LIG1       -0.0261
      7 C          -1.1766   -1.9598   -3.7132 C.ar    1  LIG1        0.0292
      8 C         -10.8003   -3.0275    1.4458 C.ar    1  LIG1       -0.0003
      9 C          -9.8785   -4.0723    1.3509 C.ar    1  LIG1        0.0379
     10 C         -12.5674   -4.6364    1.0497 C.ar    1  LIG1        0.0437
     11 C          -1.0719   -0.5717   -1.3663 C.ar    1  LIG1        0.0670
     12 C          -8.7271   -2.1777    1.7448 C.ar    1  LIG1        0.0947
     13 C          -2.2647   -0.8942   -1.9932 C.ar    1  LIG1        0.1414
     14 C          -7.5988   -1.3223    1.9704 C.2     1  LIG1        0.2598
     15 C          -5.5438   -1.7093   -0.9487 C.3     1  LIG1       -0.0185
     16 C          -4.2257   -0.6386    0.9277 C.3     1  LIG1       -0.0185
     17 C          -6.3550   -2.4672    0.1013 C.3     1  LIG1        0.0162
     18 C          -5.0852   -1.4087    1.9315 C.3     1  LIG1        0.0162
     19 C          -4.1468   -1.3360   -0.4367 C.3     1  LIG1        0.0271
     20 C          -5.0124    2.2646   -3.5647 C.3     1  LIG1       -0.0639
     21 C          -0.0655    1.2690    1.7471 C.3     1  LIG1       -0.0497
     22 C         -14.2022   -5.6403   -1.6875 C.3     1  LIG1        0.0225
     23 C          -4.4125    0.9133   -3.2031 C.3     1  LIG1       -0.0402
     24 C           0.1944    0.4865    0.5050 C.3     1  LIG1        0.0056
     25 C          -4.0553    0.8037   -1.7257 C.3     1  LIG1        0.0130
     26 N          -2.3479   -1.5802   -3.1551 N.ar    1  LIG1       -0.2394
     27 N          -8.6279   -3.5273    1.5363 N.ar    1  LIG1       -0.3101
     28 N          -6.3987   -1.7147    1.3624 N.am    1  LIG1       -0.2966
     29 N          -1.0289    0.1449   -0.1558 N.pl3   1  LIG1       -0.3419
     30 N         -13.9551   -4.9371    0.8926 N.pl3   1  LIG1       -0.2633
     31 N          -3.4607   -0.4886   -1.3911 N.pl3   1  LIG1       -0.3111
     32 O          -7.7113   -0.3110    2.6612 O.2     1  LIG1       -0.2702
     33 O         -16.1763   -4.5794   -0.3667 O.2     1  LIG1       -0.4814
     34 O         -14.2140   -3.1222   -0.9758 O.2     1  LIG1       -0.4814
     35 S         -14.7470   -4.3970   -0.5378 S.O2    1  LIG1       -0.1957
     36 H           0.9772   -2.0149   -3.6565 H       1  LIG1        0.0639
     37 H          -9.5274   -6.1934    1.0389 H       1  LIG1        0.0643
     38 H           1.0743   -0.7517   -1.5205 H       1  LIG1        0.0644
     39 H         -11.9445   -6.6818    0.7714 H       1  LIG1        0.0643
     40 H         -12.9081   -2.5206    1.3616 H       1  LIG1        0.0650
     41 H         -10.4626   -0.8423    1.8220 H       1  LIG1        0.0651
     42 H          -1.2665   -2.5091   -4.6447 H       1  LIG1        0.0840
     43 H          -5.4699   -2.3125   -1.8611 H       1  LIG1        0.0302
     44 H          -6.0792   -0.7879   -1.2114 H       1  LIG1        0.0302
     45 H          -4.6654    0.3569    0.7835 H       1  LIG1        0.0302
     46 H          -3.2221   -0.4894    1.3435 H       1  LIG1        0.0302
     47 H          -7.3582   -2.6564   -0.2892 H       1  LIG1        0.0470
     48 H          -5.9090   -3.4445    0.3181 H       1  LIG1        0.0470
     49 H          -4.6129   -2.3607    2.1998 H       1  LIG1        0.0470
     50 H          -5.1862   -0.8254    2.8522 H       1  LIG1        0.0470
     51 H          -3.5568   -2.2535   -0.3292 H       1  LIG1        0.0506
     52 H          -5.9242    2.4554   -2.9898 H       1  LIG1        0.0231
     53 H          -4.2990    3.0648   -3.3429 H       1  LIG1        0.0231
     54 H          -5.2581    2.3200   -4.6296 H       1  LIG1        0.0231
     55 H          -0.5894    2.2033    1.5179 H       1  LIG1        0.0246
     56 H          -0.6610    0.6861    2.4582 H       1  LIG1        0.0246
     57 H           0.8850    1.5245    2.2307 H       1  LIG1        0.0246
     58 H         -14.6374   -5.4211   -2.6638 H       1  LIG1        0.0442
     59 H         -13.1128   -5.6084   -1.7386 H       1  LIG1        0.0442
     60 H         -14.5400   -6.6134   -1.3278 H       1  LIG1        0.0442
     61 H          -3.5049    0.7622   -3.7989 H       1  LIG1        0.0280
     62 H          -5.1177    0.1205   -3.4796 H       1  LIG1        0.0280
     63 H           0.7178   -0.4449    0.7411 H       1  LIG1        0.0463
     64 H           0.8025    1.0642   -0.1974 H       1  LIG1        0.0463
     65 H          -3.3219    1.5716   -1.4598 H       1  LIG1        0.0469
     66 H          -4.9372    0.9411   -1.0923 H       1  LIG1        0.0469
     67 H          -7.7635   -4.0511    1.5205 H       1  LIG1        0.1529
     68 H          -1.9077    0.4177    0.2456 H       1  LIG1        0.1466
     69 H         -14.2195   -5.8879    1.1981 H       1  LIG1        0.1702
@<TRIPOS>BOND
     1     1     3   ar
     2     1     7   ar
     3     2     4   ar
     4     2     9   ar
     5     3    11   ar
     6     4    10   ar
     7     5     8   ar
     8     5    10   ar
     9     6     8   ar
    10     6    12   ar
    11     7    26   ar
    12     8     9   ar
    13     9    27   ar
    14    10    30    1
    15    11    13   ar
    16    11    29    1
    17    12    14    1
    18    12    27   ar
    19    13    26   ar
    20    13    31    1
    21    14    28   am
    22    14    32    2
    23    15    17    1
    24    15    19    1
    25    16    18    1
    26    16    19    1
    27    17    28    1
    28    18    28    1
    29    19    31    1
    30    20    23    1
    31    21    24    1
    32    22    35    1
    33    23    25    1
    34    24    29    1
    35    25    31    1
    36    30    35    1
    37    33    35    2
    38    34    35    2
    39     1    36    1
    40     2    37    1
    41     3    38    1
    42     4    39    1
    43     5    40    1
    44     6    41    1
    45     7    42    1
    46    15    43    1
    47    15    44    1
    48    16    45    1
    49    16    46    1
    50    17    47    1
    51    17    48    1
    52    18    49    1
    53    18    50    1
    54    19    51    1
    55    20    52    1
    56    20    53    1
    57    20    54    1
    58    21    55    1
    59    21    56    1
    60    21    57    1
    61    22    58    1
    62    22    59    1
    63    22    60    1
    64    23    61    1
    65    23    62    1
    66    24    63    1
    67    24    64    1
    68    25    65    1
    69    25    66    1
    70    27    67    1
    71    29    68    1
    72    30    69    1
