@<TRIPOS>MOLECULE
ChEBML887508
 45 49 0 0 0
SMALL
USER_CHARGES

@<TRIPOS>ATOM
      1 C         -14.8954   -5.4906    0.8788 C.ar    1  LIG1       -0.0616
      2 C         -14.1676   -6.4371    0.1659 C.ar    1  LIG1       -0.0616
      3 C          -6.1883   -0.2387    3.4569 C.ar    1  LIG1       -0.0597
      4 C          -1.8949    1.5329   -3.6822 C.ar    1  LIG1       -0.0548
      5 C         -14.2443   -4.4000    1.4552 C.ar    1  LIG1       -0.0543
      6 C         -12.7866   -6.2957    0.0275 C.ar    1  LIG1       -0.0543
      7 C          -7.3800   -0.9251    3.2238 C.ar    1  LIG1       -0.0513
      8 C          -5.1523   -0.3036    2.5249 C.ar    1  LIG1       -0.0407
      9 C          -1.3856    0.5481   -2.7873 C.ar    1  LIG1       -0.0513
     10 C         -12.2027   -3.1371    1.9111 C.ar    1  LIG1       -0.0265
     11 C         -10.7201   -5.0726    0.4545 C.ar    1  LIG1       -0.0307
     12 C          -6.4999   -1.7414    1.1271 C.ar    1  LIG1       -0.0300
     13 C          -3.2010    1.8653   -3.3970 C.ar    1  LIG1       -0.0245
     14 C         -12.8554   -4.2405    1.3270 C.ar    1  LIG1       -0.0161
     15 C         -12.1130   -5.2055    0.6001 C.ar    1  LIG1       -0.0164
     16 C          -7.5358   -1.6764    2.0590 C.ar    1  LIG1        0.0168
     17 C         -10.8116   -3.0041    1.7658 C.ar    1  LIG1        0.0872
     18 C         -10.1123   -3.9657    1.0482 C.ar    1  LIG1        0.0582
     19 C          -5.3081   -1.0549    1.3601 C.ar    1  LIG1        0.0332
     20 C          -2.3218    0.1655   -1.8519 C.ar    1  LIG1       -0.0017
     21 C          -8.7689   -2.3857    1.8173 C.ar    1  LIG1        0.1298
     22 C          -3.0094   -0.5055    0.4891 C.2     1  LIG1        0.2209
     23 C          -2.1787   -0.8403   -0.7397 C.3     1  LIG1        0.0561
     24 N          -9.9622   -2.0293    2.2369 N.ar    1  LIG1       -0.2308
     25 N          -8.8073   -3.5465    1.0963 N.ar    1  LIG1       -0.2973
     26 N          -4.2710   -1.1209    0.4294 N.am    1  LIG1       -0.2851
     27 O          -2.5885    0.2150    1.3885 O.2     1  LIG1       -0.2769
     28 S          -3.8078    0.9918   -2.0549 S.2     1  LIG1       -0.1020
     29 H         -15.9706   -5.5999    0.9869 H       1  LIG1        0.0623
     30 H         -14.6737   -7.2866   -0.2834 H       1  LIG1        0.0623
     31 H          -6.0669    0.3462    4.3641 H       1  LIG1        0.0623
     32 H          -1.3325    1.9761   -4.4935 H       1  LIG1        0.0628
     33 H         -14.8358   -3.6725    2.0080 H       1  LIG1        0.0629
     34 H         -12.2392   -7.0495   -0.5354 H       1  LIG1        0.0629
     35 H          -8.1786   -0.8645    3.9598 H       1  LIG1        0.0630
     36 H          -4.2277    0.2346    2.7178 H       1  LIG1        0.0642
     37 H          -0.3816    0.1450   -2.8307 H       1  LIG1        0.0631
     38 H         -12.7589   -2.3897    2.4709 H       1  LIG1        0.0652
     39 H         -10.1309   -5.7987   -0.0976 H       1  LIG1        0.0650
     40 H          -6.6170   -2.3257    0.2163 H       1  LIG1        0.0650
     41 H          -3.8280    2.5789   -3.9127 H       1  LIG1        0.0700
     42 H          -2.4716   -1.8340   -1.1020 H       1  LIG1        0.0420
     43 H          -1.1244   -0.9129   -0.4441 H       1  LIG1        0.0420
     44 H          -8.0178   -4.0160    0.6724 H       1  LIG1        0.1544
     45 H          -4.4527   -1.6911   -0.4047 H       1  LIG1        0.1556
@<TRIPOS>BOND
     1     1     2   ar
     2     1     5   ar
     3     2     6   ar
     4     3     7   ar
     5     3     8   ar
     6     4     9   ar
     7     4    13   ar
     8     5    14   ar
     9     6    15   ar
    10     7    16   ar
    11     8    19   ar
    12     9    20   ar
    13    10    14   ar
    14    10    17   ar
    15    11    15   ar
    16    11    18   ar
    17    12    16   ar
    18    12    19   ar
    19    13    28   ar
    20    14    15   ar
    21    16    21    1
    22    17    18   ar
    23    17    24   ar
    24    18    25   ar
    25    19    26    1
    26    20    23    1
    27    20    28   ar
    28    21    24   ar
    29    21    25   ar
    30    22    23    1
    31    22    26   am
    32    22    27    2
    33     1    29    1
    34     2    30    1
    35     3    31    1
    36     4    32    1
    37     5    33    1
    38     6    34    1
    39     7    35    1
    40     8    36    1
    41     9    37    1
    42    10    38    1
    43    11    39    1
    44    12    40    1
    45    13    41    1
    46    23    42    1
    47    23    43    1
    48    25    44    1
    49    26    45    1
