@<TRIPOS>MOLECULE
ChEBML348089
 33 36 0 0 0
SMALL
USER_CHARGES

@<TRIPOS>ATOM
      1 C          -2.8593   -1.9748   -1.8255 C.ar    1  LIG1       -0.0589
      2 C          -3.6934   -2.5913   -0.8884 C.ar    1  LIG1       -0.0401
      3 C         -10.2560   -5.2482    0.6037 C.ar    1  LIG1       -0.0376
      4 C         -11.5893   -5.6425    0.7482 C.ar    1  LIG1       -0.0302
      5 C          -3.0770   -0.6574   -2.2242 C.ar    1  LIG1       -0.0428
      6 C         -12.1685   -3.5148    1.7654 C.ar    1  LIG1       -0.0229
      7 C         -10.1262   -1.9042    1.9621 C.ar    1  LIG1       -0.0275
      8 C          -6.1364   -0.0750   -0.0250 C.ar    1  LIG1       -0.0261
      9 C         -10.8302   -3.0955    1.6303 C.ar    1  LIG1        0.0003
     10 C          -4.9935   -0.5157   -0.7494 C.ar    1  LIG1        0.0164
     11 C          -9.9067   -3.9701    1.0536 C.ar    1  LIG1        0.0379
     12 C          -4.7514   -1.8373   -0.3684 C.ar    1  LIG1        0.0393
     13 C         -12.5325   -4.7908    1.3198 C.ar    1  LIG1        0.0720
     14 C          -4.1393    0.0848   -1.6955 C.ar    1  LIG1        0.0498
     15 C          -8.8133   -2.0755    1.5879 C.ar    1  LIG1        0.0811
     16 C          -6.5581   -1.1182    0.7667 C.ar    1  LIG1        0.0811
     17 C          -7.7270   -1.1568    1.7187 C.2     1  LIG1        0.2206
     18 N          -8.6908   -3.3245    1.0407 N.ar    1  LIG1       -0.3112
     19 N          -5.7164   -2.1766    0.5528 N.ar    1  LIG1       -0.3111
     20 O          -7.6913   -0.3199    2.6507 O.2     1  LIG1       -0.2856
     21 O         -13.8250   -5.2039    1.4471 O.3     1  LIG1       -0.3609
     22 CL         -4.4580    1.6971   -2.1461 Cl      1  LIG1       -0.0836
     23 H          -2.0292   -2.5333   -2.2503 H       1  LIG1        0.0624
     24 H          -3.5235   -3.6169   -0.5783 H       1  LIG1        0.0642
     25 H          -9.5225   -5.9119    0.1582 H       1  LIG1        0.0643
     26 H         -11.8871   -6.6311    0.4065 H       1  LIG1        0.0651
     27 H          -2.4098   -0.2102   -2.9572 H       1  LIG1        0.0638
     28 H         -12.9102   -2.8564    2.2095 H       1  LIG1        0.0657
     29 H         -10.5401   -1.0184    2.4256 H       1  LIG1        0.0651
     30 H          -6.6026    0.9001   -0.0743 H       1  LIG1        0.0651
     31 H          -7.8335   -3.7189    0.6785 H       1  LIG1        0.1529
     32 H          -5.7903   -3.0783    1.0038 H       1  LIG1        0.1529
     33 H         -14.3596   -4.5077    1.8597 H       1  LIG1        0.2182
@<TRIPOS>BOND
     1     1     2   ar
     2     1     5   ar
     3     2    12   ar
     4     3     4   ar
     5     3    11   ar
     6     4    13   ar
     7     5    14   ar
     8     6     9   ar
     9     6    13   ar
    10     7     9   ar
    11     7    15   ar
    12     8    10   ar
    13     8    16   ar
    14     9    11   ar
    15    10    12   ar
    16    10    14   ar
    17    11    18   ar
    18    12    19   ar
    19    13    21    1
    20    14    22    1
    21    15    17    1
    22    15    18   ar
    23    16    17    1
    24    16    19   ar
    25    17    20    2
    26     1    23    1
    27     2    24    1
    28     3    25    1
    29     4    26    1
    30     5    27    1
    31     6    28    1
    32     7    29    1
    33     8    30    1
    34    18    31    1
    35    19    32    1
    36    21    33    1
