@<TRIPOS>MOLECULE
ChEBML1075945
 51 55 0 0 0
SMALL
USER_CHARGES

@<TRIPOS>ATOM
      1 C          -1.9761   -0.7575   -2.9367 C.ar    1  LIG1       -0.0573
      2 C          -1.8804    0.5931   -3.2528 C.ar    1  LIG1       -0.0437
      3 C          -3.0335   -1.2097   -2.1550 C.ar    1  LIG1       -0.0217
      4 C          -2.8598    1.4439   -2.7665 C.ar    1  LIG1        0.0290
      5 C          -3.9612   -0.2780   -1.7176 C.ar    1  LIG1        0.1199
      6 C          -7.2757   -2.6653    2.1305 C.2     1  LIG1        0.2206
      7 C         -10.8604   -4.9905    1.5297 C.3     1  LIG1       -0.0475
      8 C         -11.5991   -2.6984    2.2313 C.3     1  LIG1       -0.0475
      9 C         -10.9236   -3.1249   -0.1460 C.3     1  LIG1       -0.0475
     10 C          -9.3977   -3.6029    3.0213 C.3     1  LIG1       -0.0361
     11 C          -8.7211   -4.0300    0.6399 C.3     1  LIG1       -0.0361
     12 C          -9.4599   -1.7349    1.3433 C.3     1  LIG1       -0.0361
     13 C          -5.4691   -2.1095   -1.1612 C.3     1  LIG1        0.0288
     14 C          -5.2452   -0.1172    0.3564 C.3     1  LIG1        0.0288
     15 C          -6.7116   -2.3937   -0.3170 C.3     1  LIG1        0.0300
     16 C          -5.4302   -1.1820    1.4353 C.3     1  LIG1        0.0300
     17 C         -10.8527   -3.9674    2.6786 C.3     1  LIG1       -0.0399
     18 C         -10.1736   -4.3963    0.2878 C.3     1  LIG1       -0.0399
     19 C         -10.9156   -2.0911    0.9937 C.3     1  LIG1       -0.0399
     20 C          -8.6987   -2.9996    1.7864 C.3     1  LIG1        0.0481
     21 N          -3.9016    1.0418   -2.0044 N.ar    1  LIG1       -0.2414
     22 N          -4.9980   -0.7389   -0.9476 N.pl3   1  LIG1       -0.3127
     23 N          -6.5074   -2.1118    1.1057 N.am    1  LIG1       -0.2982
     24 O          -6.8544   -2.8899    3.2675 O.2     1  LIG1       -0.2768
     25 H          -1.2276   -1.4564   -3.2979 H       1  LIG1        0.0624
     26 H          -1.0649    0.9683   -3.8604 H       1  LIG1        0.0639
     27 H          -3.1162   -2.2621   -1.9040 H       1  LIG1        0.0659
     28 H          -2.8311    2.5064   -2.9850 H       1  LIG1        0.0840
     29 H         -10.3439   -5.9068    1.8408 H       1  LIG1        0.0272
     30 H         -11.8923   -5.2730    1.2873 H       1  LIG1        0.0272
     31 H         -12.6439   -2.9405    2.0009 H       1  LIG1        0.0272
     32 H         -11.6146   -1.9658    3.0476 H       1  LIG1        0.0272
     33 H         -10.4529   -2.6992   -1.0407 H       1  LIG1        0.0272
     34 H         -11.9568   -3.3743   -0.4178 H       1  LIG1        0.0272
     35 H          -9.3770   -2.8909    3.8570 H       1  LIG1        0.0280
     36 H          -8.8613   -4.4965    3.3669 H       1  LIG1        0.0280
     37 H          -8.1679   -4.9343    0.9262 H       1  LIG1        0.0280
     38 H          -8.2117   -3.6269   -0.2453 H       1  LIG1        0.0280
     39 H          -8.9686   -1.2776    0.4744 H       1  LIG1        0.0280
     40 H          -9.4416   -0.9790    2.1396 H       1  LIG1        0.0280
     41 H          -4.6719   -2.8141   -0.8922 H       1  LIG1        0.0485
     42 H          -5.7089   -2.2645   -2.2199 H       1  LIG1        0.0485
     43 H          -6.1470    0.5021    0.2810 H       1  LIG1        0.0485
     44 H          -4.4176    0.5436    0.6427 H       1  LIG1        0.0485
     45 H          -7.5444   -1.7606   -0.6465 H       1  LIG1        0.0486
     46 H          -7.0147   -3.4363   -0.4516 H       1  LIG1        0.0486
     47 H          -4.5169   -1.7794    1.5458 H       1  LIG1        0.0486
     48 H          -5.6283   -0.7062    2.4017 H       1  LIG1        0.0486
     49 H         -11.3445   -4.3953    3.5591 H       1  LIG1        0.0303
     50 H         -10.1838   -5.1286   -0.5272 H       1  LIG1        0.0303
     51 H         -11.4525   -1.1893    0.6793 H       1  LIG1        0.0303
@<TRIPOS>BOND
     1     1     2   ar
     2     1     3   ar
     3     2     4   ar
     4     3     5   ar
     5     4    21   ar
     6     5    21   ar
     7     5    22    1
     8     6    20    1
     9     6    23   am
    10     6    24    2
    11     7    17    1
    12     7    18    1
    13     8    17    1
    14     8    19    1
    15     9    18    1
    16     9    19    1
    17    10    17    1
    18    10    20    1
    19    11    18    1
    20    11    20    1
    21    12    19    1
    22    12    20    1
    23    13    15    1
    24    13    22    1
    25    14    16    1
    26    14    22    1
    27    15    23    1
    28    16    23    1
    29     1    25    1
    30     2    26    1
    31     3    27    1
    32     4    28    1
    33     7    29    1
    34     7    30    1
    35     8    31    1
    36     8    32    1
    37     9    33    1
    38     9    34    1
    39    10    35    1
    40    10    36    1
    41    11    37    1
    42    11    38    1
    43    12    39    1
    44    12    40    1
    45    13    41    1
    46    13    42    1
    47    14    43    1
    48    14    44    1
    49    15    45    1
    50    15    46    1
    51    16    47    1
    52    16    48    1
    53    17    49    1
    54    18    50    1
    55    19    51    1
