@<TRIPOS>MOLECULE
ChEBML248654
 46 49 0 0 0
SMALL
USER_CHARGES

@<TRIPOS>ATOM
      1 C         -12.5317   -4.8156    1.2392 C.ar    1  LIG1       -0.0615
      2 C         -11.6636   -5.4716    0.3752 C.ar    1  LIG1       -0.0601
      3 C         -12.0858   -3.7032    1.9472 C.ar    1  LIG1       -0.0528
      4 C         -10.2924   -2.1260    2.4923 C.ar    1  LIG1       -0.0493
      5 C         -10.3526   -5.0139    0.2211 C.ar    1  LIG1       -0.0357
      6 C          -8.9847   -1.6965    2.3171 C.ar    1  LIG1       -0.0210
      7 C          -2.6970   -1.1290   -1.3274 C.ar    1  LIG1       -0.0032
      8 C          -1.9213   -0.7100   -2.3890 C.ar    1  LIG1        0.0326
      9 C         -10.7672   -3.2432    1.7920 C.ar    1  LIG1        0.0003
     10 C          -9.8805   -3.9041    0.9163 C.ar    1  LIG1        0.0725
     11 C          -8.1919   -2.4071    1.4389 C.ar    1  LIG1        0.1207
     12 C          -3.8427   -0.3946   -1.0987 C.ar    1  LIG1        0.1238
     13 C          -3.3728    0.9777   -2.8489 C.ar    1  LIG1        0.1582
     14 C          -6.6021   -0.5546    1.4274 C.3     1  LIG1        0.0287
     15 C          -6.0151   -2.7746    0.4202 C.3     1  LIG1        0.0287
     16 C          -5.8595   -0.0123    0.2031 C.3     1  LIG1        0.0287
     17 C          -4.6060   -2.1764    0.3846 C.3     1  LIG1        0.0287
     18 C          -4.4948    3.2342   -2.9192 C.3     1  LIG1       -0.0315
     19 C          -3.7483    2.1471   -3.6943 C.3     1  LIG1        0.1109
     20 N          -2.2303    0.3431   -3.1736 N.ar    1  LIG1       -0.2384
     21 N          -8.6109   -3.4896    0.7443 N.ar    1  LIG1       -0.2330
     22 N          -4.2125    0.6687   -1.8423 N.ar    1  LIG1       -0.2153
     23 N          -6.8575   -1.9639    1.2643 N.pl3   1  LIG1       -0.3127
     24 N          -4.6414   -0.7808   -0.0523 N.pl3   1  LIG1       -0.3126
     25 O          -2.5602    2.7318   -4.2404 O.3     1  LIG1       -0.3853
     26 H         -13.5510   -5.1688    1.3619 H       1  LIG1        0.0623
     27 H         -12.0023   -6.3404   -0.1817 H       1  LIG1        0.0623
     28 H         -12.7732   -3.1973    2.6217 H       1  LIG1        0.0630
     29 H         -10.9396   -1.5840    3.1782 H       1  LIG1        0.0631
     30 H          -9.6928   -5.5453   -0.4625 H       1  LIG1        0.0645
     31 H          -8.6143   -0.8318    2.8572 H       1  LIG1        0.0659
     32 H          -2.4131   -1.9809   -0.7225 H       1  LIG1        0.0676
     33 H          -1.0024   -1.2259   -2.6459 H       1  LIG1        0.0841
     34 H          -5.9843   -0.4271    2.3249 H       1  LIG1        0.0485
     35 H          -7.5177    0.0301    1.5820 H       1  LIG1        0.0485
     36 H          -6.4226   -2.8145   -0.5985 H       1  LIG1        0.0485
     37 H          -5.9608   -3.8027    0.7977 H       1  LIG1        0.0485
     38 H          -6.5159   -0.0618   -0.6755 H       1  LIG1        0.0485
     39 H          -5.6074    1.0415    0.3718 H       1  LIG1        0.0485
     40 H          -4.1596   -2.2147    1.3859 H       1  LIG1        0.0485
     41 H          -3.9724   -2.7848   -0.2729 H       1  LIG1        0.0485
     42 H          -3.9167    3.5669   -2.0512 H       1  LIG1        0.0261
     43 H          -5.4695    2.8761   -2.5689 H       1  LIG1        0.0261
     44 H          -4.6953    4.1012   -3.5581 H       1  LIG1        0.0261
     45 H          -4.3742    1.8512   -4.5536 H       1  LIG1        0.0683
     46 H          -2.8521    3.4817   -4.7781 H       1  LIG1        0.2111
@<TRIPOS>BOND
     1     1     2   ar
     2     1     3   ar
     3     2     5   ar
     4     3     9   ar
     5     4     6   ar
     6     4     9   ar
     7     5    10   ar
     8     6    11   ar
     9     7     8   ar
    10     7    12   ar
    11     8    20   ar
    12     9    10   ar
    13    10    21   ar
    14    11    21   ar
    15    11    23    1
    16    12    22   ar
    17    12    24    1
    18    13    19    1
    19    13    20   ar
    20    13    22   ar
    21    14    16    1
    22    14    23    1
    23    15    17    1
    24    15    23    1
    25    16    24    1
    26    17    24    1
    27    18    19    1
    28    19    25    1
    29     1    26    1
    30     2    27    1
    31     3    28    1
    32     4    29    1
    33     5    30    1
    34     6    31    1
    35     7    32    1
    36     8    33    1
    37    14    34    1
    38    14    35    1
    39    15    36    1
    40    15    37    1
    41    16    38    1
    42    16    39    1
    43    17    40    1
    44    17    41    1
    45    18    42    1
    46    18    43    1
    47    18    44    1
    48    19    45    1
    49    25    46    1
