@<TRIPOS>MOLECULE
ChEBML208501
 47 50 0 0 0
SMALL
USER_CHARGES

@<TRIPOS>ATOM
      1 C          -1.4815    1.3378   -3.4537 C.ar    1  LIG1       -0.0622
      2 C          -2.8454    1.6287   -3.4289 C.ar    1  LIG1       -0.0620
      3 C          -1.0339    0.0628   -3.1075 C.ar    1  LIG1       -0.0620
      4 C         -12.0908   -5.0968    0.9785 C.ar    1  LIG1       -0.0589
      5 C         -11.6095   -4.2433    1.9779 C.ar    1  LIG1       -0.0528
      6 C          -3.7618    0.6447   -3.0578 C.ar    1  LIG1       -0.0590
      7 C          -1.9503   -0.9212   -2.7365 C.ar    1  LIG1       -0.0590
      8 C         -11.4319   -5.2058   -0.2445 C.ar    1  LIG1       -0.0301
      9 C          -9.6934   -2.5512    2.4978 C.ar    1  LIG1       -0.0261
     10 C         -10.4439   -3.4895    1.7353 C.ar    1  LIG1        0.0005
     11 C          -3.3142   -0.6302   -2.7116 C.ar    1  LIG1       -0.0477
     12 C          -9.8045   -3.6190    0.5005 C.ar    1  LIG1        0.0683
     13 C         -10.2742   -4.4680   -0.5079 C.ar    1  LIG1        0.0932
     14 C          -8.6325   -2.1373    1.7258 C.ar    1  LIG1        0.0947
     15 C          -7.6005   -1.2003    2.0605 C.2     1  LIG1        0.2598
     16 C          -5.5423   -2.7960   -0.4124 C.3     1  LIG1       -0.0341
     17 C          -5.0923   -0.3131   -0.3520 C.3     1  LIG1       -0.0341
     18 C          -5.8746   -2.7444    1.0777 C.3     1  LIG1        0.0147
     19 C          -5.4261   -0.3208    1.1377 C.3     1  LIG1        0.0147
     20 C          -4.5597   -1.6816   -0.8064 C.3     1  LIG1       -0.0344
     21 C          -4.3018   -1.6916   -2.3112 C.3     1  LIG1       -0.0249
     22 N          -8.7081   -2.7866    0.5228 N.ar    1  LIG1       -0.3080
     23 N          -6.3563   -1.4138    1.4524 N.am    1  LIG1       -0.2967
     24 O          -7.8260   -0.2754    2.8388 O.2     1  LIG1       -0.2702
     25 O          -9.6398   -4.5864   -1.7120 O.3     1  LIG1       -0.3589
     26 H          -0.7682    2.1037   -3.7440 H       1  LIG1        0.0622
     27 H          -3.1942    2.6211   -3.6994 H       1  LIG1        0.0623
     28 H           0.0279   -0.1644   -3.1278 H       1  LIG1        0.0623
     29 H         -12.9900   -5.6797    1.1603 H       1  LIG1        0.0624
     30 H         -12.1334   -4.1674    2.9262 H       1  LIG1        0.0629
     31 H          -4.8226    0.8806   -3.0411 H       1  LIG1        0.0625
     32 H          -1.5924   -1.9117   -2.4683 H       1  LIG1        0.0625
     33 H         -11.8277   -5.8773   -1.0030 H       1  LIG1        0.0651
     34 H          -9.9100   -2.2177    3.5040 H       1  LIG1        0.0651
     35 H          -5.1188   -3.7766   -0.6590 H       1  LIG1        0.0285
     36 H          -6.4692   -2.6898   -0.9910 H       1  LIG1        0.0285
     37 H          -5.9948   -0.0599   -0.9233 H       1  LIG1        0.0285
     38 H          -4.3498    0.4669   -0.5572 H       1  LIG1        0.0285
     39 H          -6.6186   -3.5105    1.3174 H       1  LIG1        0.0469
     40 H          -4.9818   -2.9532    1.6789 H       1  LIG1        0.0469
     41 H          -4.5196   -0.4825    1.7331 H       1  LIG1        0.0469
     42 H          -5.8323    0.6522    1.4245 H       1  LIG1        0.0469
     43 H          -3.6046   -1.8675   -0.2975 H       1  LIG1        0.0307
     44 H          -5.2465   -1.5428   -2.8441 H       1  LIG1        0.0319
     45 H          -3.9322   -2.6777   -2.6112 H       1  LIG1        0.0319
     46 H          -8.0558   -2.6737   -0.2410 H       1  LIG1        0.1530
     47 H         -10.1122   -5.2180   -2.2745 H       1  LIG1        0.2183
@<TRIPOS>BOND
     1     1     2   ar
     2     1     3   ar
     3     2     6   ar
     4     3     7   ar
     5     4     5   ar
     6     4     8   ar
     7     5    10   ar
     8     6    11   ar
     9     7    11   ar
    10     8    13   ar
    11     9    10   ar
    12     9    14   ar
    13    10    12   ar
    14    11    21    1
    15    12    13   ar
    16    12    22   ar
    17    13    25    1
    18    14    15    1
    19    14    22   ar
    20    15    23   am
    21    15    24    2
    22    16    18    1
    23    16    20    1
    24    17    19    1
    25    17    20    1
    26    18    23    1
    27    19    23    1
    28    20    21    1
    29     1    26    1
    30     2    27    1
    31     3    28    1
    32     4    29    1
    33     5    30    1
    34     6    31    1
    35     7    32    1
    36     8    33    1
    37     9    34    1
    38    16    35    1
    39    16    36    1
    40    17    37    1
    41    17    38    1
    42    18    39    1
    43    18    40    1
    44    19    41    1
    45    19    42    1
    46    20    43    1
    47    21    44    1
    48    21    45    1
    49    22    46    1
    50    25    47    1
