@<TRIPOS>MOLECULE
ChEBML369915
 48 51 0 0 0
SMALL
USER_CHARGES

@<TRIPOS>ATOM
      1 C          -0.4117    0.9567   -3.0321 C.ar    1  LIG1       -0.0622
      2 C          -0.9006    1.6052   -1.8982 C.ar    1  LIG1       -0.0620
      3 C          -1.2920    0.3115   -3.9007 C.ar    1  LIG1       -0.0620
      4 C          -2.2701    1.6085   -1.6327 C.ar    1  LIG1       -0.0590
      5 C          -2.6614    0.3147   -3.6353 C.ar    1  LIG1       -0.0590
      6 C         -10.3571   -5.1777    0.4699 C.ar    1  LIG1       -0.0383
      7 C         -11.6966   -5.5230    0.6717 C.ar    1  LIG1       -0.0394
      8 C         -12.0844   -3.5000    1.9579 C.ar    1  LIG1       -0.0321
      9 C          -9.9476   -2.0195    2.1738 C.ar    1  LIG1       -0.0261
     10 C         -10.7379   -3.1311    1.7677 C.ar    1  LIG1       -0.0004
     11 C          -3.1505    0.9632   -2.5012 C.ar    1  LIG1       -0.0477
     12 C          -9.9070   -3.9768    1.0296 C.ar    1  LIG1        0.0379
     13 C         -12.5486   -4.6986    1.4039 C.ar    1  LIG1        0.0241
     14 C          -8.6760   -2.2084    1.6838 C.ar    1  LIG1        0.0947
     15 C          -7.5295   -1.3608    1.8337 C.2     1  LIG1        0.2598
     16 C          -6.5388   -0.5234   -1.5151 C.3     1  LIG1       -0.0341
     17 C          -4.6864    0.0047    0.1161 C.3     1  LIG1       -0.0341
     18 C          -6.9799   -1.6660   -0.6022 C.3     1  LIG1        0.0147
     19 C          -5.1648   -1.1551    0.9861 C.3     1  LIG1        0.0147
     20 C          -5.0376   -0.2312   -1.3617 C.3     1  LIG1       -0.0344
     21 C          -4.6271    0.9662   -2.2153 C.3     1  LIG1       -0.0249
     22 N          -8.6614   -3.3914    0.9948 N.ar    1  LIG1       -0.3101
     23 N          -6.6007   -1.3928    0.7851 N.am    1  LIG1       -0.2967
     24 N         -13.8975   -5.0748    1.5892 N.pl3   1  LIG1       -0.3583
     25 O          -7.3986   -0.6600    2.8356 O.2     1  LIG1       -0.2702
     26 H           0.6545    0.9554   -3.2394 H       1  LIG1        0.0622
     27 H          -0.2155    2.1087   -1.2224 H       1  LIG1        0.0623
     28 H          -0.9118   -0.1926   -4.7843 H       1  LIG1        0.0623
     29 H          -2.6421    2.1162   -0.7467 H       1  LIG1        0.0625
     30 H          -3.3398   -0.1907   -4.3175 H       1  LIG1        0.0625
     31 H          -9.6944   -5.8205   -0.1000 H       1  LIG1        0.0643
     32 H         -12.0678   -6.4530    0.2460 H       1  LIG1        0.0643
     33 H         -12.7510   -2.8584    2.5282 H       1  LIG1        0.0649
     34 H         -10.2786   -1.1736    2.7620 H       1  LIG1        0.0651
     35 H          -6.7690   -0.7775   -2.5564 H       1  LIG1        0.0285
     36 H          -7.1154    0.3773   -1.2674 H       1  LIG1        0.0285
     37 H          -5.1556    0.9344    0.4632 H       1  LIG1        0.0285
     38 H          -3.6030    0.1264    0.2309 H       1  LIG1        0.0285
     39 H          -8.0610   -1.8128   -0.6895 H       1  LIG1        0.0469
     40 H          -6.4956   -2.6042   -0.8977 H       1  LIG1        0.0469
     41 H          -4.6403   -2.0793    0.7157 H       1  LIG1        0.0469
     42 H          -4.9314   -0.9450    2.0327 H       1  LIG1        0.0469
     43 H          -4.4774   -1.1072   -1.7148 H       1  LIG1        0.0307
     44 H          -4.9063    1.8923   -1.7026 H       1  LIG1        0.0319
     45 H          -5.1892    0.9540   -3.1549 H       1  LIG1        0.0319
     46 H          -7.8548   -3.7830    0.5279 H       1  LIG1        0.1529
     47 H         -14.2343   -5.9069    1.1510 H       1  LIG1        0.1426
     48 H         -14.5120   -4.4549    2.0751 H       1  LIG1        0.1426
@<TRIPOS>BOND
     1     1     2   ar
     2     1     3   ar
     3     2     4   ar
     4     3     5   ar
     5     4    11   ar
     6     5    11   ar
     7     6     7   ar
     8     6    12   ar
     9     7    13   ar
    10     8    10   ar
    11     8    13   ar
    12     9    10   ar
    13     9    14   ar
    14    10    12   ar
    15    11    21    1
    16    12    22   ar
    17    13    24    1
    18    14    15    1
    19    14    22   ar
    20    15    23   am
    21    15    25    2
    22    16    18    1
    23    16    20    1
    24    17    19    1
    25    17    20    1
    26    18    23    1
    27    19    23    1
    28    20    21    1
    29     1    26    1
    30     2    27    1
    31     3    28    1
    32     4    29    1
    33     5    30    1
    34     6    31    1
    35     7    32    1
    36     8    33    1
    37     9    34    1
    38    16    35    1
    39    16    36    1
    40    17    37    1
    41    17    38    1
    42    18    39    1
    43    18    40    1
    44    19    41    1
    45    19    42    1
    46    20    43    1
    47    21    44    1
    48    21    45    1
    49    22    46    1
    50    24    47    1
    51    24    48    1
