@<TRIPOS>MOLECULE
ChEBML597129
 57 60 0 0 0
SMALL
USER_CHARGES

@<TRIPOS>ATOM
      1 C          -9.6832   -1.8884    2.2961 C.ar    1  LIG1       -0.0585
      2 C          -8.5869   -3.8478    1.4040 C.ar    1  LIG1       -0.0585
      3 C         -10.9206   -2.4070    1.9144 C.ar    1  LIG1       -0.0582
      4 C          -9.8243   -4.3665    1.0224 C.ar    1  LIG1       -0.0582
      5 C          -2.9179    1.4136   -3.0377 C.ar    1  LIG1        0.1195
      6 C          -8.5164   -2.6088    2.0408 C.ar    1  LIG1       -0.0422
      7 C         -10.9912   -3.6459    1.2776 C.ar    1  LIG1       -0.0426
      8 C          -2.5139   -0.9644   -1.9679 C.ar    1  LIG1        0.1159
      9 C          -1.6876   -0.4539   -2.9477 C.ar    1  LIG1        0.1522
     10 C          -3.5691   -0.2118   -1.5454 C.ar    1  LIG1        0.1471
     11 C          -0.9121   -2.5349   -2.3593 C.ar    1  LIG1        0.3080
     12 C          -5.2032   -0.6355    1.7714 C.3     1  LIG1        0.0081
     13 C          -6.4124   -2.0084    0.0457 C.3     1  LIG1        0.0081
     14 C          -4.4791    0.1164    0.6525 C.3     1  LIG1        0.0185
     15 C          -5.6788   -1.2482   -1.0619 C.3     1  LIG1        0.0185
     16 C          -6.5641   -1.1998    1.3410 C.3     1  LIG1       -0.0090
     17 C         -13.3270   -3.0612    0.5373 C.3     1  LIG1       -0.0561
     18 C         -12.9393   -5.0658    2.0097 C.3     1  LIG1       -0.0561
     19 C         -12.2965   -5.1246   -0.3914 C.3     1  LIG1       -0.0561
     20 C          -7.1829   -2.0510    2.4519 C.3     1  LIG1        0.0173
     21 C         -12.3147   -4.2005    0.8713 C.3     1  LIG1       -0.0132
     22 N          -1.8474    0.7415   -3.5211 N.ar    1  LIG1       -0.2191
     23 N          -3.7960    1.0084   -2.0782 N.ar    1  LIG1       -0.2193
     24 N          -2.0686   -2.2257   -1.5911 N.ar    1  LIG1       -0.2629
     25 N          -0.6950   -1.4076   -3.2017 N.ar    1  LIG1       -0.2516
     26 N          -4.4111   -0.7045   -0.5639 N.pl3   1  LIG1       -0.3136
     27 N          -7.5042   -0.0588    1.0918 N.4     1  LIG1        0.2355
     28 O          -0.2429   -3.5566   -2.3073 O.2     1  LIG1       -0.2535
     29 H          -9.6378   -0.9221    2.7914 H       1  LIG1        0.0625
     30 H          -7.6828   -4.4164    1.2025 H       1  LIG1        0.0625
     31 H         -11.8244   -1.8394    2.1190 H       1  LIG1        0.0626
     32 H          -9.8705   -5.3326    0.5268 H       1  LIG1        0.0626
     33 H          -3.1010    2.3932   -3.4642 H       1  LIG1        0.1063
     34 H          -4.5620   -1.4663    2.0965 H       1  LIG1        0.0343
     35 H          -5.3141    0.0273    2.6389 H       1  LIG1        0.0343
     36 H          -7.3925   -2.3323   -0.3272 H       1  LIG1        0.0343
     37 H          -5.8467   -2.9246    0.2644 H       1  LIG1        0.0343
     38 H          -4.9848    1.0659    0.4375 H       1  LIG1        0.0471
     39 H          -3.4665    0.3602    0.9985 H       1  LIG1        0.0471
     40 H          -5.4912   -1.9420   -1.8915 H       1  LIG1        0.0471
     41 H          -6.3077   -0.4391   -1.4534 H       1  LIG1        0.0471
     42 H         -14.3094   -3.4425    0.2353 H       1  LIG1        0.0239
     43 H         -13.4898   -2.4040    1.3985 H       1  LIG1        0.0239
     44 H         -12.9434   -2.4414   -0.2817 H       1  LIG1        0.0239
     45 H         -13.9117   -5.4751    1.7150 H       1  LIG1        0.0239
     46 H         -12.3065   -5.9155    2.2917 H       1  LIG1        0.0239
     47 H         -13.0973   -4.4554    2.9066 H       1  LIG1        0.0239
     48 H         -13.2914   -5.5069   -0.6497 H       1  LIG1        0.0239
     49 H         -11.9236   -4.5808   -1.2673 H       1  LIG1        0.0239
     50 H         -11.6498   -5.9947   -0.2285 H       1  LIG1        0.0239
     51 H          -7.2919   -1.4430    3.3544 H       1  LIG1        0.0377
     52 H          -6.4979   -2.8645    2.7075 H       1  LIG1        0.0377
     53 H          -2.4937   -2.8212   -0.8913 H       1  LIG1        0.1576
     54 H           0.0550   -1.3114   -3.8748 H       1  LIG1        0.1589
     55 H          -8.3353   -0.3891    0.6012 H       1  LIG1        0.1968
     56 H          -7.0475    0.6538    0.5220 H       1  LIG1        0.1968
     57 H          -7.7896    0.3608    1.9767 H       1  LIG1        0.1968
@<TRIPOS>BOND
     1     1     3   ar
     2     1     6   ar
     3     2     4   ar
     4     2     6   ar
     5     3     7   ar
     6     4     7   ar
     7     5    22   ar
     8     5    23   ar
     9     6    20    1
    10     7    21    1
    11     8     9   ar
    12     8    10   ar
    13     8    24   ar
    14     9    22   ar
    15     9    25   ar
    16    10    23   ar
    17    10    26    1
    18    11    24   ar
    19    11    25   ar
    20    11    28    2
    21    12    14    1
    22    12    16    1
    23    13    15    1
    24    13    16    1
    25    14    26    1
    26    15    26    1
    27    16    20    1
    28    16    27    1
    29    17    21    1
    30    18    21    1
    31    19    21    1
    32     1    29    1
    33     2    30    1
    34     3    31    1
    35     4    32    1
    36     5    33    1
    37    12    34    1
    38    12    35    1
    39    13    36    1
    40    13    37    1
    41    14    38    1
    42    14    39    1
    43    15    40    1
    44    15    41    1
    45    17    42    1
    46    17    43    1
    47    17    44    1
    48    18    45    1
    49    18    46    1
    50    18    47    1
    51    19    48    1
    52    19    49    1
    53    19    50    1
    54    20    51    1
    55    20    52    1
    56    24    53    1
    57    25    54    1
    58    27    55    1
    59    27    56    1
    60    27    57    1
