@<TRIPOS>MOLECULE
ChEBML1273811
 39 42 0 0 0
SMALL
USER_CHARGES

@<TRIPOS>ATOM
      1 C         -12.5090   -4.7017    1.3912 C.ar    1  LIG1       -0.0431
      2 C         -12.0866   -3.5252    1.9527 C.ar    1  LIG1       -0.0499
      3 C          -9.9830   -2.0337    2.1901 C.ar    1  LIG1       -0.0246
      4 C         -11.6145   -5.4763    0.6667 C.ar    1  LIG1        0.0291
      5 C         -10.7494   -3.1464    1.7701 C.ar    1  LIG1        0.0170
      6 C          -8.7222   -2.1995    1.7115 C.ar    1  LIG1        0.0959
      7 C          -9.8943   -3.9811    1.0223 C.ar    1  LIG1        0.1291
      8 C          -7.6028   -1.2685    1.9174 C.2     1  LIG1        0.2598
      9 C          -6.1467   -2.4841    0.2483 C.3     1  LIG1        0.0228
     10 C          -5.1745   -0.7133    1.4642 C.3     1  LIG1        0.0228
     11 C          -3.7464   -2.8065   -0.4076 C.3     1  LIG1       -0.0296
     12 C          -3.0765   -0.5966    0.0923 C.3     1  LIG1       -0.0296
     13 C          -5.0066   -1.9358   -0.6266 C.3     1  LIG1        0.0231
     14 C          -4.6130   -0.5795    0.0286 C.3     1  LIG1        0.0231
     15 C          -1.4227   -2.3593    0.1073 C.3     1  LIG1       -0.0454
     16 N         -10.3614   -5.1098    0.5029 N.ar    1  LIG1       -0.2406
     17 N          -8.6613   -3.3801    0.9952 N.ar    1  LIG1       -0.2948
     18 N          -6.4336   -1.4684    1.2776 N.am    1  LIG1       -0.2957
     19 N          -2.6262   -1.8448   -0.5596 N.4     1  LIG1        0.2444
     20 O          -7.7322   -0.3178    2.6653 O.2     1  LIG1       -0.2702
     21 H         -13.5325   -5.0244    1.5122 H       1  LIG1        0.0639
     22 H         -12.7656   -2.9068    2.5209 H       1  LIG1        0.0631
     23 H         -10.3360   -1.2035    2.7837 H       1  LIG1        0.0652
     24 H         -11.9547   -6.4023    0.2272 H       1  LIG1        0.0840
     25 H          -7.0335   -2.6545   -0.3621 H       1  LIG1        0.0475
     26 H          -5.8356   -3.4150    0.7224 H       1  LIG1        0.0475
     27 H          -5.3765    0.2696    1.8899 H       1  LIG1        0.0475
     28 H          -4.4830   -1.2710    2.0958 H       1  LIG1        0.0475
     29 H          -3.6851   -3.5891   -1.1639 H       1  LIG1        0.0818
     30 H          -3.7479   -3.2383    0.5931 H       1  LIG1        0.0818
     31 H          -2.7481   -0.5816    1.1316 H       1  LIG1        0.0818
     32 H          -2.6735    0.2656   -0.4390 H       1  LIG1        0.0818
     33 H          -5.2770   -1.8388   -1.6782 H       1  LIG1        0.0379
     34 H          -5.0135    0.2832   -0.5040 H       1  LIG1        0.0379
     35 H          -1.6469   -2.5642    1.1541 H       1  LIG1        0.0777
     36 H          -1.1010   -3.2786   -0.3820 H       1  LIG1        0.0777
     37 H          -0.6271   -1.6168    0.0447 H       1  LIG1        0.0777
     38 H          -7.8741   -3.7283    0.5480 H       1  LIG1        0.1545
     39 H          -2.4386   -1.6789   -1.5371 H       1  LIG1        0.2000
@<TRIPOS>BOND
     1     1     2   ar
     2     1     4   ar
     3     2     5   ar
     4     3     5   ar
     5     3     6   ar
     6     4    16   ar
     7     5     7   ar
     8     6     8    1
     9     6    17   ar
    10     7    16   ar
    11     7    17   ar
    12     8    18   am
    13     8    20    2
    14     9    13    1
    15     9    18    1
    16    10    14    1
    17    10    18    1
    18    11    13    1
    19    11    19    1
    20    12    14    1
    21    12    19    1
    22    13    14    1
    23    15    19    1
    24     1    21    1
    25     2    22    1
    26     3    23    1
    27     4    24    1
    28     9    25    1
    29     9    26    1
    30    10    27    1
    31    10    28    1
    32    11    29    1
    33    11    30    1
    34    12    31    1
    35    12    32    1
    36    13    33    1
    37    14    34    1
    38    15    35    1
    39    15    36    1
    40    15    37    1
    41    17    38    1
    42    19    39    1
