@<TRIPOS>MOLECULE
ChEBML368779
 53 58 0 0 0
SMALL
USER_CHARGES

@<TRIPOS>ATOM
      1 C          -6.5513   -1.7043   -0.6939 C.ar    1  LIG1       -0.0501
      2 C          -5.5148   -1.3163   -1.4888 C.ar    1  LIG1       -0.0522
      3 C         -11.7794   -5.7463    1.2853 C.ar    1  LIG1       -0.0519
      4 C         -10.4897   -5.3889    0.9571 C.ar    1  LIG1       -0.0397
      5 C          -3.2236   -0.4055   -3.1776 C.ar    1  LIG1       -0.0187
      6 C         -12.1788   -3.6016    2.2656 C.ar    1  LIG1       -0.0446
      7 C         -10.0991   -1.9947    2.1469 C.ar    1  LIG1       -0.0293
      8 C          -4.8670    0.3688    0.1242 C.ar    1  LIG1       -0.0294
      9 C          -2.1014    0.2667   -3.6619 C.ar    1  LIG1        0.0470
     10 C          -6.7687   -1.0675    0.5314 C.ar    1  LIG1        0.0265
     11 C         -10.8723   -3.2192    1.9473 C.ar    1  LIG1       -0.0018
     12 C          -4.6611   -0.2802   -1.0873 C.ar    1  LIG1       -0.0008
     13 C         -12.6173   -4.8537    1.9399 C.ar    1  LIG1       -0.0035
     14 C         -10.0191   -4.1213    1.2834 C.ar    1  LIG1        0.0377
     15 C          -5.9194   -0.0231    0.9436 C.ar    1  LIG1        0.0576
     16 C          -7.7635   -1.2335    1.5977 C.ar    1  LIG1        0.1116
     17 C          -3.5398    0.1297   -1.9606 C.ar    1  LIG1        0.0563
     18 C          -8.8696   -2.2122    1.6149 C.ar    1  LIG1        0.0593
     19 C         -14.5726   -5.7322   -0.0020 C.3     1  LIG1       -0.0098
     20 C         -16.3120   -5.2206    1.5631 C.3     1  LIG1       -0.0098
     21 C         -15.5654   -5.4379   -1.1280 C.3     1  LIG1        0.0859
     22 C         -17.2350   -4.9469    0.3741 C.3     1  LIG1        0.0859
     23 C         -14.0239   -5.2672    2.2887 C.3     1  LIG1       -0.0081
     24 N          -1.7456    1.1710   -2.7848 N.ar    1  LIG1       -0.1922
     25 N          -7.4879   -0.3575    2.5360 N.ar    1  LIG1       -0.1816
     26 N          -8.8117   -3.4848    1.0945 N.ar    1  LIG1       -0.3126
     27 N          -6.3691    0.3975    2.1703 N.ar    1  LIG1       -0.2372
     28 N          -2.6339    1.1153   -1.7032 N.ar    1  LIG1       -0.2380
     29 N         -14.9236   -4.9282    1.1779 N.4     1  LIG1        0.2526
     30 O         -16.8829   -5.7992   -0.7151 O.3     1  LIG1       -0.3705
     31 H          -7.2046   -2.5040   -1.0104 H       1  LIG1        0.0631
     32 H          -5.3499   -1.8110   -2.4346 H       1  LIG1        0.0630
     33 H         -12.1421   -6.7314    1.0310 H       1  LIG1        0.0628
     34 H          -9.8461   -6.0909    0.4481 H       1  LIG1        0.0643
     35 H          -3.7492   -1.2067   -3.6760 H       1  LIG1        0.0660
     36 H         -12.8378   -2.9109    2.7706 H       1  LIG1        0.0635
     37 H         -10.4410   -1.0897    2.6267 H       1  LIG1        0.0650
     38 H          -4.2069    1.1663    0.4321 H       1  LIG1        0.0650
     39 H          -1.6085    0.0735   -4.6031 H       1  LIG1        0.0857
     40 H         -13.5648   -5.4768   -0.3295 H       1  LIG1        0.0839
     41 H         -14.6153   -6.7909    0.2534 H       1  LIG1        0.0839
     42 H         -16.3958   -6.2674    1.8553 H       1  LIG1        0.0839
     43 H         -16.5989   -4.5845    2.4005 H       1  LIG1        0.0839
     44 H         -15.5389   -4.3745   -1.3660 H       1  LIG1        0.0622
     45 H         -15.2918   -6.0134   -2.0122 H       1  LIG1        0.0622
     46 H         -17.1324   -3.9058    0.0678 H       1  LIG1        0.0622
     47 H         -18.2677   -5.1383    0.6653 H       1  LIG1        0.0622
     48 H         -14.3442   -4.7426    3.1888 H       1  LIG1        0.0869
     49 H         -14.0533   -6.3425    2.4649 H       1  LIG1        0.0869
     50 H          -8.0373   -3.8752    0.6601 H       1  LIG1        0.1528
     51 H          -5.9733    1.1071    2.7001 H       1  LIG1        0.1755
     52 H          -2.6080    1.6761   -0.9122 H       1  LIG1        0.1755
     53 H         -14.8338   -3.9476    0.9583 H       1  LIG1        0.2009
@<TRIPOS>BOND
     1     1     2   ar
     2     1    10   ar
     3     2    12   ar
     4     3     4   ar
     5     3    13   ar
     6     4    14   ar
     7     5     9   ar
     8     5    17   ar
     9     6    11   ar
    10     6    13   ar
    11     7    11   ar
    12     7    18   ar
    13     8    12   ar
    14     8    15   ar
    15     9    24   ar
    16    10    15   ar
    17    10    16   ar
    18    11    14   ar
    19    12    17    1
    20    13    23    1
    21    14    26   ar
    22    15    27   ar
    23    16    18    1
    24    16    25   ar
    25    17    28   ar
    26    18    26   ar
    27    19    21    1
    28    19    29    1
    29    20    22    1
    30    20    29    1
    31    21    30    1
    32    22    30    1
    33    23    29    1
    34    24    28   ar
    35    25    27   ar
    36     1    31    1
    37     2    32    1
    38     3    33    1
    39     4    34    1
    40     5    35    1
    41     6    36    1
    42     7    37    1
    43     8    38    1
    44     9    39    1
    45    19    40    1
    46    19    41    1
    47    20    42    1
    48    20    43    1
    49    21    44    1
    50    21    45    1
    51    22    46    1
    52    22    47    1
    53    23    48    1
    54    23    49    1
    55    26    50    1
    56    27    51    1
    57    28    52    1
    58    29    53    1
