@<TRIPOS>MOLECULE
ChEBML311504
 48 51 0 0 0
SMALL
USER_CHARGES

@<TRIPOS>ATOM
      1 C          -0.6216   -2.3290   -3.6052 C.ar    1  LIG1       -0.0615
      2 C          -1.4392   -3.0779   -2.7609 C.ar    1  LIG1       -0.0615
      3 C          -0.8994   -0.9805   -3.8327 C.ar    1  LIG1       -0.0526
      4 C          -2.5376   -2.4812   -2.1407 C.ar    1  LIG1       -0.0507
      5 C         -10.3548   -5.1597    0.9830 C.ar    1  LIG1       -0.0381
      6 C         -10.6849   -2.7699    1.1121 C.ar    1  LIG1       -0.0381
      7 C         -11.7207   -5.3365    0.7629 C.ar    1  LIG1       -0.0296
      8 C         -12.0509   -2.9467    0.8919 C.ar    1  LIG1       -0.0296
      9 C          -2.3313    0.9678   -3.3997 C.ar    1  LIG1        0.0576
     10 C          -2.0029   -0.3704   -3.2130 C.ar    1  LIG1        0.0054
     11 C          -2.8258   -1.1243   -2.3630 C.ar    1  LIG1        0.0255
     12 C          -9.8368   -3.8763    1.1578 C.ar    1  LIG1        0.0341
     13 C         -12.5688   -4.2301    0.7172 C.ar    1  LIG1        0.0848
     14 C          -3.9047   -0.4735   -1.7747 C.ar    1  LIG1        0.1508
     15 C          -7.9417   -2.4351    1.6283 C.2     1  LIG1        0.3050
     16 C          -4.8827   -0.7147    0.4517 C.3     1  LIG1        0.0289
     17 C          -5.8295   -1.9464   -1.5240 C.3     1  LIG1        0.0289
     18 C          -6.3526   -0.6937    0.8652 C.3     1  LIG1        0.0315
     19 C          -6.5324   -2.7893   -0.4589 C.3     1  LIG1        0.0315
     20 C         -14.3196   -5.5155   -0.2798 C.3     1  LIG1        0.5271
     21 N          -3.3903    1.5609   -2.8073 N.ar    1  LIG1       -0.1565
     22 N          -4.1877    0.8304   -1.9839 N.ar    1  LIG1       -0.1346
     23 N          -4.7400   -1.1648   -0.9356 N.pl3   1  LIG1       -0.3107
     24 N          -6.9789   -2.0033    0.6967 N.am    1  LIG1       -0.2824
     25 N          -8.4662   -3.6987    1.3786 N.am    1  LIG1       -0.2690
     26 O          -8.2885   -1.7504    2.5964 O.2     1  LIG1       -0.2537
     27 O         -13.9016   -4.4026    0.5024 O.3     1  LIG1       -0.2541
     28 F         -13.3833   -5.8453   -1.1946 F       1  LIG1       -0.1435
     29 F         -15.4503   -5.1820   -0.9428 F       1  LIG1       -0.1435
     30 F         -14.5948   -6.5822    0.5005 F       1  LIG1       -0.1435
     31 H           0.2334   -2.7950   -4.0863 H       1  LIG1        0.0623
     32 H          -1.2215   -4.1276   -2.5853 H       1  LIG1        0.0623
     33 H          -0.2514   -0.4105   -4.4943 H       1  LIG1        0.0630
     34 H          -3.1531   -3.0966   -1.4892 H       1  LIG1        0.0630
     35 H          -9.7031   -6.0291    1.0166 H       1  LIG1        0.0643
     36 H         -10.2925   -1.7650    1.2469 H       1  LIG1        0.0643
     37 H         -12.1182   -6.3387    0.6276 H       1  LIG1        0.0651
     38 H         -12.7066   -2.0808    0.8575 H       1  LIG1        0.0651
     39 H          -1.7466    1.6180   -4.0425 H       1  LIG1        0.0866
     40 H          -4.4597    0.2885    0.5860 H       1  LIG1        0.0485
     41 H          -4.3192   -1.3976    1.0988 H       1  LIG1        0.0485
     42 H          -5.4406   -2.6079   -2.3073 H       1  LIG1        0.0485
     43 H          -6.5523   -1.2657   -1.9919 H       1  LIG1        0.0485
     44 H          -6.4418   -0.3633    1.9054 H       1  LIG1        0.0486
     45 H          -6.9183    0.0139    0.2468 H       1  LIG1        0.0486
     46 H          -7.3924   -3.2945   -0.9108 H       1  LIG1        0.0486
     47 H          -5.8521   -3.5587   -0.0744 H       1  LIG1        0.0486
     48 H          -7.8937   -4.5345    1.4028 H       1  LIG1        0.1573
@<TRIPOS>BOND
     1     1     2   ar
     2     1     3   ar
     3     2     4   ar
     4     3    10   ar
     5     4    11   ar
     6     5     7   ar
     7     5    12   ar
     8     6     8   ar
     9     6    12   ar
    10     7    13   ar
    11     8    13   ar
    12     9    10   ar
    13     9    21   ar
    14    10    11   ar
    15    11    14   ar
    16    12    25    1
    17    13    27    1
    18    14    22   ar
    19    14    23    1
    20    15    24   am
    21    15    25   am
    22    15    26    2
    23    16    18    1
    24    16    23    1
    25    17    19    1
    26    17    23    1
    27    18    24    1
    28    19    24    1
    29    20    27    1
    30    20    28    1
    31    20    29    1
    32    20    30    1
    33    21    22   ar
    34     1    31    1
    35     2    32    1
    36     3    33    1
    37     4    34    1
    38     5    35    1
    39     6    36    1
    40     7    37    1
    41     8    38    1
    42     9    39    1
    43    16    40    1
    44    16    41    1
    45    17    42    1
    46    17    43    1
    47    18    44    1
    48    18    45    1
    49    19    46    1
    50    19    47    1
    51    25    48    1
