@<TRIPOS>MOLECULE
ChEBML811413
 33 34 0 0 0
SMALL
USER_CHARGES

@<TRIPOS>ATOM
      1 C          -2.0419    0.1671   -3.2633 C.ar    1  LIG1       -0.0543
      2 C          -9.5236   -4.1761    0.8882 C.ar    1  LIG1       -0.0572
      3 C          -8.3747   -3.3956    0.7619 C.ar    1  LIG1       -0.0405
      4 C          -2.1735   -0.8224   -2.2465 C.ar    1  LIG1       -0.0438
      5 C          -9.4332   -1.6321    2.0295 C.ar    1  LIG1       -0.0376
      6 C          -3.0205    1.1326   -3.1755 C.ar    1  LIG1       -0.0240
      7 C         -10.6276   -3.6848    1.5851 C.ar    1  LIG1       -0.0480
      8 C         -10.5823   -2.4127    2.1558 C.ar    1  LIG1       -0.0463
      9 C          -8.3294   -2.1235    1.3325 C.ar    1  LIG1        0.0301
     10 C          -3.2477   -0.5751   -1.4200 C.ar    1  LIG1        0.0591
     11 C          -4.9228   -0.8604    0.4718 C.2     1  LIG1        0.0005
     12 C          -6.0095   -1.6343    0.5765 C.2     1  LIG1       -0.0033
     13 C          -3.7226   -1.3574   -0.2531 C.2     1  LIG1        0.1933
     14 C         -11.8469   -4.5384    1.7062 C.3     1  LIG1       -0.0395
     15 C         -11.7523   -1.8650    2.9052 C.3     1  LIG1       -0.0394
     16 N          -7.1671   -1.3350    1.2052 N.pl3   1  LIG1       -0.3209
     17 O          -3.1113   -2.3613    0.0960 O.2     1  LIG1       -0.2885
     18 S          -4.0921    0.8446   -1.8713 S.2     1  LIG1       -0.0940
     19 H          -1.2695    0.1697   -4.0212 H       1  LIG1        0.0628
     20 H          -9.5498   -5.1656    0.4397 H       1  LIG1        0.0626
     21 H          -7.5206   -3.7882    0.2154 H       1  LIG1        0.0642
     22 H          -1.5103   -1.6705   -2.1314 H       1  LIG1        0.0636
     23 H          -9.3987   -0.6399    2.4740 H       1  LIG1        0.0645
     24 H          -3.1577    1.9927   -3.8157 H       1  LIG1        0.0701
     25 H          -4.9039    0.1240    0.9254 H       1  LIG1        0.0677
     26 H          -6.0497   -2.6242    0.1352 H       1  LIG1        0.0790
     27 H         -11.7877   -5.1600    2.6072 H       1  LIG1        0.0280
     28 H         -12.7554   -3.9263    1.7629 H       1  LIG1        0.0280
     29 H         -11.9587   -5.1957    0.8348 H       1  LIG1        0.0280
     30 H         -12.4193   -1.3230    2.2248 H       1  LIG1        0.0280
     31 H         -12.3234   -2.6668    3.3896 H       1  LIG1        0.0280
     32 H         -11.4292   -1.1793    3.6982 H       1  LIG1        0.0280
     33 H          -7.2039   -0.4226    1.6440 H       1  LIG1        0.1522
@<TRIPOS>BOND
     1     1     4   ar
     2     1     6   ar
     3     2     3   ar
     4     2     7   ar
     5     3     9   ar
     6     4    10   ar
     7     5     8   ar
     8     5     9   ar
     9     6    18   ar
    10     7     8   ar
    11     7    14    1
    12     8    15    1
    13     9    16    1
    14    10    13    1
    15    10    18   ar
    16    11    12    2
    17    11    13    1
    18    12    16    1
    19    13    17    2
    20     1    19    1
    21     2    20    1
    22     3    21    1
    23     4    22    1
    24     5    23    1
    25     6    24    1
    26    11    25    1
    27    12    26    1
    28    14    27    1
    29    14    28    1
    30    14    29    1
    31    15    30    1
    32    15    31    1
    33    15    32    1
    34    16    33    1
