@<TRIPOS>MOLECULE
ChEBML728923
 44 47 0 0 0
SMALL
USER_CHARGES

@<TRIPOS>ATOM
      1 C         -12.4186   -5.1048    0.5774 C.ar    1  LIG1       -0.0599
      2 C         -12.9696   -3.8329    0.5313 C.ar    1  LIG1       -0.0599
      3 C          -2.2159   -0.5329   -3.2031 C.ar    1  LIG1       -0.0450
      4 C         -11.0753   -5.2603    0.9151 C.ar    1  LIG1       -0.0342
      5 C         -12.1725   -2.7274    0.8228 C.ar    1  LIG1       -0.0342
      6 C          -3.0102   -0.8856   -2.1179 C.ar    1  LIG1       -0.0211
      7 C          -3.0756    1.6792   -3.0470 C.ar    1  LIG1        0.0413
      8 C          -8.2453   -3.2428    1.8052 C.ar    1  LIG1        0.0588
      9 C          -2.2434    0.7720   -3.6827 C.ar    1  LIG1        0.0739
     10 C         -10.2701   -4.1621    1.2082 C.ar    1  LIG1        0.0887
     11 C         -10.8291   -2.8718    1.1613 C.ar    1  LIG1        0.0896
     12 C          -8.7893   -1.9868    1.7593 C.ar    1  LIG1        0.1446
     13 C          -3.8081    0.0958   -1.5522 C.ar    1  LIG1        0.1200
     14 C          -7.9971   -0.7967    2.0560 C.2     1  LIG1        0.2658
     15 C          -4.8988    0.7469    0.5275 C.3     1  LIG1        0.0288
     16 C          -5.4884   -1.4137   -0.6158 C.3     1  LIG1        0.0288
     17 C          -5.6760    0.1298    1.6904 C.3     1  LIG1        0.0303
     18 C          -6.8901   -1.0534   -0.1292 C.3     1  LIG1        0.0303
     19 C          -1.4058    1.1800   -4.8422 C.3     1  LIG1        0.4175
     20 N          -8.9768   -4.3378    1.5314 N.ar    1  LIG1       -0.2521
     21 N          -3.8615    1.3737   -1.9903 N.ar    1  LIG1       -0.2408
     22 N         -10.0807   -1.7898    1.4383 N.ar    1  LIG1       -0.2395
     23 N          -4.5851   -0.2673   -0.4825 N.pl3   1  LIG1       -0.3127
     24 N          -6.8889   -0.5646    1.2466 N.am    1  LIG1       -0.2933
     25 O          -8.3843   -0.0993    2.9884 O.2     1  LIG1       -0.2698
     26 F          -0.6428    0.1673   -5.3549 F       1  LIG1       -0.1661
     27 F          -2.1273    1.6500   -5.9045 F       1  LIG1       -0.1661
     28 F          -0.5241    2.1772   -4.5333 F       1  LIG1       -0.1661
     29 H         -13.0286   -5.9744    0.3524 H       1  LIG1        0.0623
     30 H         -14.0147   -3.6979    0.2698 H       1  LIG1        0.0623
     31 H          -1.5792   -1.2801   -3.6688 H       1  LIG1        0.0631
     32 H         -10.6561   -6.2641    0.9476 H       1  LIG1        0.0646
     33 H         -12.6178   -1.7351    0.7825 H       1  LIG1        0.0646
     34 H          -2.9952   -1.9019   -1.7374 H       1  LIG1        0.0659
     35 H          -3.1396    2.7116   -3.3767 H       1  LIG1        0.0847
     36 H          -7.2079   -3.4220    2.0614 H       1  LIG1        0.0865
     37 H          -5.4953    1.5457    0.0686 H       1  LIG1        0.0485
     38 H          -3.9738    1.1960    0.9085 H       1  LIG1        0.0485
     39 H          -5.0863   -2.2438   -0.0227 H       1  LIG1        0.0485
     40 H          -5.5453   -1.7540   -1.6570 H       1  LIG1        0.0485
     41 H          -5.0581   -0.6139    2.2083 H       1  LIG1        0.0486
     42 H          -5.9340    0.9087    2.4151 H       1  LIG1        0.0486
     43 H          -7.3160   -0.2544   -0.7486 H       1  LIG1        0.0486
     44 H          -7.5544   -1.9204   -0.2142 H       1  LIG1        0.0486
@<TRIPOS>BOND
     1     1     2   ar
     2     1     4   ar
     3     2     5   ar
     4     3     6   ar
     5     3     9   ar
     6     4    10   ar
     7     5    11   ar
     8     6    13   ar
     9     7     9   ar
    10     7    21   ar
    11     8    12   ar
    12     8    20   ar
    13     9    19    1
    14    10    11   ar
    15    10    20   ar
    16    11    22   ar
    17    12    14    1
    18    12    22   ar
    19    13    21   ar
    20    13    23    1
    21    14    24   am
    22    14    25    2
    23    15    17    1
    24    15    23    1
    25    16    18    1
    26    16    23    1
    27    17    24    1
    28    18    24    1
    29    19    26    1
    30    19    27    1
    31    19    28    1
    32     1    29    1
    33     2    30    1
    34     3    31    1
    35     4    32    1
    36     5    33    1
    37     6    34    1
    38     7    35    1
    39     8    36    1
    40    15    37    1
    41    15    38    1
    42    16    39    1
    43    16    40    1
    44    17    41    1
    45    17    42    1
    46    18    43    1
    47    18    44    1
