@<TRIPOS>MOLECULE
ChEBML300398
 52 54 0 0 0
SMALL
USER_CHARGES

@<TRIPOS>ATOM
      1 C         -10.3464   -5.1708    0.4644 C.ar    1  LIG1       -0.0387
      2 C         -11.6840   -5.5239    0.6649 C.ar    1  LIG1       -0.0416
      3 C         -12.0824   -3.5080    1.9590 C.ar    1  LIG1       -0.0343
      4 C          -9.9534   -2.0171    2.1806 C.ar    1  LIG1       -0.0262
      5 C         -10.7378   -3.1313    1.7702 C.ar    1  LIG1       -0.0007
      6 C          -9.9025   -3.9696    1.0287 C.ar    1  LIG1        0.0379
      7 C         -12.5403   -4.7067    1.4003 C.ar    1  LIG1        0.0413
      8 C          -8.6808   -2.1975    1.6898 C.ar    1  LIG1        0.0945
      9 C          -7.4978   -1.3127    1.8473 C.2     1  LIG1        0.2576
     10 C          -4.6246   -0.6215   -0.0685 C.2     1  LIG1        0.2318
     11 C          -2.3915    0.0731   -3.6638 C.3     1  LIG1       -0.0515
     12 C          -3.1449    1.4015   -3.5519 C.3     1  LIG1       -0.0515
     13 C          -2.5704   -0.6276   -2.3196 C.3     1  LIG1       -0.0345
     14 C          -3.7375    1.4329   -2.1455 C.3     1  LIG1       -0.0345
     15 C          -2.8162    0.5191   -1.3464 C.3     1  LIG1        0.0253
     16 C          -5.0915   -1.0116    1.3228 C.3     1  LIG1        0.0887
     17 C          -1.2545   -0.2279    1.0762 C.3     1  LIG1        0.0021
     18 C          -2.6443    0.4028    1.1095 C.3     1  LIG1        0.0194
     19 C          -1.3114   -1.7464    0.9667 C.3     1  LIG1       -0.0364
     20 N          -8.6600   -3.3778    0.9963 N.ar    1  LIG1       -0.3101
     21 N          -6.3227   -1.7439    1.2398 N.am    1  LIG1       -0.3013
     22 N          -3.3969    0.0808   -0.1105 N.am    1  LIG1       -0.2972
     23 N           0.0706   -2.2852    0.9884 N.4     1  LIG1        0.2309
     24 O          -7.6036   -0.2810    2.5053 O.2     1  LIG1       -0.2704
     25 O          -5.2921   -0.9147   -1.0639 O.2     1  LIG1       -0.2756
     26 CL        -14.1832   -5.1752    1.6245 Cl      1  LIG1       -0.0843
     27 H          -9.6806   -5.8082   -0.1078 H       1  LIG1        0.0643
     28 H         -12.0465   -6.4546    0.2338 H       1  LIG1        0.0639
     29 H         -12.7490   -2.8699    2.5332 H       1  LIG1        0.0645
     30 H         -10.2884   -1.1752    2.7718 H       1  LIG1        0.0651
     31 H          -2.7689   -0.5421   -4.4868 H       1  LIG1        0.0267
     32 H          -1.3294    0.2644   -3.8558 H       1  LIG1        0.0267
     33 H          -2.4477    2.2357   -3.6913 H       1  LIG1        0.0267
     34 H          -3.9244    1.4936   -4.3147 H       1  LIG1        0.0267
     35 H          -3.4364   -1.3008   -2.3602 H       1  LIG1        0.0285
     36 H          -1.6977   -1.2286   -2.0458 H       1  LIG1        0.0285
     37 H          -3.7797    2.4470   -1.7357 H       1  LIG1        0.0285
     38 H          -4.7623    1.0409   -2.1632 H       1  LIG1        0.0285
     39 H          -1.8769    1.0331   -1.1106 H       1  LIG1        0.0506
     40 H          -4.3536   -1.6589    1.8035 H       1  LIG1        0.0567
     41 H          -5.2790   -0.1194    1.9259 H       1  LIG1        0.0567
     42 H          -0.6928    0.0601    1.9739 H       1  LIG1        0.0337
     43 H          -0.7089    0.1781    0.2152 H       1  LIG1        0.0337
     44 H          -3.1985    0.0215    1.9733 H       1  LIG1        0.0471
     45 H          -2.5699    1.4898    1.2190 H       1  LIG1        0.0471
     46 H          -1.8398   -2.2049    1.8074 H       1  LIG1        0.0813
     47 H          -1.7635   -2.0722    0.0252 H       1  LIG1        0.0813
     48 H          -7.8514   -3.7623    0.5271 H       1  LIG1        0.1529
     49 H          -6.3044   -2.6454    0.7641 H       1  LIG1        0.1503
     50 H           0.7583   -1.5287    1.0687 H       1  LIG1        0.1962
     51 H           0.2740   -2.8069    0.1289 H       1  LIG1        0.1962
     52 H           0.2045   -2.9200    1.7827 H       1  LIG1        0.1962
@<TRIPOS>BOND
     1     1     2   ar
     2     1     6   ar
     3     2     7   ar
     4     3     5   ar
     5     3     7   ar
     6     4     5   ar
     7     4     8   ar
     8     5     6   ar
     9     6    20   ar
    10     7    26    1
    11     8     9    1
    12     8    20   ar
    13     9    21   am
    14     9    24    2
    15    10    16    1
    16    10    22   am
    17    10    25    2
    18    11    12    1
    19    11    13    1
    20    12    14    1
    21    13    15    1
    22    14    15    1
    23    15    22    1
    24    16    21    1
    25    17    18    1
    26    17    19    1
    27    18    22    1
    28    19    23    1
    29     1    27    1
    30     2    28    1
    31     3    29    1
    32     4    30    1
    33    11    31    1
    34    11    32    1
    35    12    33    1
    36    12    34    1
    37    13    35    1
    38    13    36    1
    39    14    37    1
    40    14    38    1
    41    15    39    1
    42    16    40    1
    43    16    41    1
    44    17    42    1
    45    17    43    1
    46    18    44    1
    47    18    45    1
    48    19    46    1
    49    19    47    1
    50    20    48    1
    51    21    49    1
    52    23    50    1
    53    23    51    1
    54    23    52    1
