@<TRIPOS>MOLECULE
ChEBML891633
 49 54 0 0 0
SMALL
USER_CHARGES

@<TRIPOS>ATOM
      1 C         -12.3898   -4.9154    1.3259 C.ar    1  LIG1       -0.0615
      2 C         -11.4081   -5.4872    0.5127 C.ar    1  LIG1       -0.0596
      3 C          -5.5609    3.4665    1.1783 C.ar    1  LIG1       -0.0547
      4 C         -12.1531   -3.7149    2.0097 C.ar    1  LIG1       -0.0522
      5 C          -1.7534    1.8123   -4.4944 C.ar    1  LIG1       -0.0571
      6 C          -2.8718    1.8546   -3.6568 C.ar    1  LIG1       -0.0349
      7 C         -10.1574   -4.8836    0.3521 C.ar    1  LIG1       -0.0306
      8 C          -6.1262    2.4245    0.3879 C.ar    1  LIG1       -0.0496
      9 C         -10.2899   -1.9116    2.3641 C.ar    1  LIG1       -0.0173
     10 C          -1.0619   -0.3011   -3.5279 C.ar    1  LIG1       -0.0430
     11 C          -4.7621    2.9751    2.1874 C.ar    1  LIG1       -0.0244
     12 C         -10.9023   -3.0903    1.8625 C.ar    1  LIG1        0.0080
     13 C          -0.8615    0.7476   -4.4291 C.ar    1  LIG1       -0.0498
     14 C          -3.0981    0.8078   -2.7370 C.ar    1  LIG1        0.0799
     15 C          -9.9516   -3.6913    1.0439 C.ar    1  LIG1        0.0895
     16 C          -2.1875   -0.2523   -2.6897 C.ar    1  LIG1        0.0411
     17 C          -9.0246   -1.8726    1.8254 C.ar    1  LIG1        0.1305
     18 C          -5.7379    1.1763    0.8230 C.ar    1  LIG1        0.0150
     19 C          -4.0495   -0.3899   -1.1474 C.ar    1  LIG1        0.1683
     20 C          -5.8712   -2.1868    1.4422 C.2     1  LIG1        0.1447
     21 C          -6.6571   -1.1252    1.2610 C.2     1  LIG1        0.0636
     22 C          -4.7088   -2.0465    0.5415 C.2     1  LIG1        0.2757
     23 C          -7.9674   -0.9315    1.9726 C.2     1  LIG1        0.2170
     24 C          -6.1051   -0.1457    0.2715 C.3     1  LIG1        0.0959
     25 C           0.3269    0.7227   -5.3320 C.3     1  LIG1       -0.0397
     26 N          -4.1589    0.7145   -1.8481 N.ar    1  LIG1       -0.2250
     27 N          -4.8930   -0.8460   -0.1695 N.am    1  LIG1       -0.2316
     28 O          -3.8063   -2.8641    0.4579 O.2     1  LIG1       -0.2688
     29 O          -8.0646    0.1075    2.6737 O.2     1  LIG1       -0.2864
     30 O          -8.8095   -2.9479    1.0233 O.2     1  LIG1       -0.3056
     31 O          -6.0655   -3.2544    2.2612 O.2     1  LIG1       -0.3557
     32 S          -4.6962    1.2640    2.1792 S.2     1  LIG1       -0.1001
     33 S          -2.6986   -1.3812   -1.4909 S.2     1  LIG1       -0.0516
     34 H         -13.3531   -5.4081    1.4307 H       1  LIG1        0.0623
     35 H         -11.6201   -6.4192   -0.0055 H       1  LIG1        0.0623
     36 H          -5.7301    4.5227    1.0152 H       1  LIG1        0.0628
     37 H         -12.9258   -3.2822    2.6379 H       1  LIG1        0.0630
     38 H          -1.5897    2.6240   -5.1988 H       1  LIG1        0.0626
     39 H          -3.5625    2.6911   -3.7169 H       1  LIG1        0.0646
     40 H          -9.3920   -5.3211   -0.2776 H       1  LIG1        0.0650
     41 H          -6.7830    2.5875   -0.4573 H       1  LIG1        0.0632
     42 H         -10.7218   -1.1834    3.0366 H       1  LIG1        0.0659
     43 H          -0.3649   -1.1329   -3.4758 H       1  LIG1        0.0638
     44 H          -4.2146    3.5391    2.9292 H       1  LIG1        0.0700
     45 H          -6.7726   -0.0375   -0.5903 H       1  LIG1        0.0622
     46 H           1.1790    1.2197   -4.8534 H       1  LIG1        0.0280
     47 H           0.6168   -0.3064   -5.5788 H       1  LIG1        0.0280
     48 H           0.1149    1.2303   -6.2815 H       1  LIG1        0.0280
     49 H          -6.9004   -3.1715    2.7473 H       1  LIG1        0.2184
@<TRIPOS>BOND
     1     1     2   ar
     2     1     4   ar
     3     2     7   ar
     4     3     8   ar
     5     3    11   ar
     6     4    12   ar
     7     5     6   ar
     8     5    13   ar
     9     6    14   ar
    10     7    15   ar
    11     8    18   ar
    12     9    12   ar
    13     9    17   ar
    14    10    13   ar
    15    10    16   ar
    16    11    32   ar
    17    12    15   ar
    18    13    25    1
    19    14    16   ar
    20    14    26   ar
    21    15    30   ar
    22    16    33   ar
    23    17    23    1
    24    17    30   ar
    25    18    24    1
    26    18    32   ar
    27    19    26   ar
    28    19    27    1
    29    19    33   ar
    30    20    21    2
    31    20    22    1
    32    20    31    1
    33    21    23    1
    34    21    24    1
    35    22    27   am
    36    22    28    2
    37    23    29    2
    38    24    27    1
    39     1    34    1
    40     2    35    1
    41     3    36    1
    42     4    37    1
    43     5    38    1
    44     6    39    1
    45     7    40    1
    46     8    41    1
    47     9    42    1
    48    10    43    1
    49    11    44    1
    50    24    45    1
    51    25    46    1
    52    25    47    1
    53    25    48    1
    54    31    49    1
