@<TRIPOS>MOLECULE
ChEBML406364
 47 49 0 0 0
SMALL
USER_CHARGES

@<TRIPOS>ATOM
      1 C          -2.8348    1.6302   -2.6009 C.ar    1  LIG1       -0.0589
      2 C          -9.9156   -1.6778    1.6310 C.ar    1  LIG1       -0.0494
      3 C          -8.2750   -3.4458    1.5289 C.ar    1  LIG1       -0.0494
      4 C         -10.9079   -2.5915    1.3417 C.ar    1  LIG1       -0.0580
      5 C          -9.2777   -4.3502    1.2457 C.ar    1  LIG1       -0.0580
      6 C          -3.4266    1.0539   -1.4943 C.ar    1  LIG1       -0.0408
      7 C          -2.3558    0.8337   -3.6248 C.ar    1  LIG1       -0.0434
      8 C          -3.0536   -1.1265   -2.4362 C.ar    1  LIG1       -0.0222
      9 C          -8.5887   -2.1002    1.7268 C.ar    1  LIG1        0.0372
     10 C         -10.5902   -3.9239    1.1467 C.ar    1  LIG1       -0.0454
     11 C          -3.5405   -0.3283   -1.4094 C.ar    1  LIG1        0.0301
     12 C          -2.4673   -0.5433   -3.5440 C.ar    1  LIG1        0.0424
     13 C          -7.5200   -1.1264    2.0360 C.2     1  LIG1        0.2456
     14 C          -4.5397    0.1840    0.5958 C.3     1  LIG1        0.0274
     15 C          -5.3640   -1.5682   -0.7623 C.3     1  LIG1        0.0274
     16 C          -5.1845   -0.3887    1.8621 C.3     1  LIG1        0.0302
     17 C          -6.0616   -2.2607    0.4187 C.3     1  LIG1        0.0302
     18 C         -12.6987   -4.9350    1.9719 C.3     1  LIG1       -0.0587
     19 C         -12.3769   -4.5117   -0.4693 C.3     1  LIG1       -0.0587
     20 C         -11.6795   -4.9164    0.8309 C.3     1  LIG1       -0.0219
     21 N          -4.1381   -0.9139   -0.2911 N.pl3   1  LIG1       -0.3276
     22 N          -6.3072   -1.2520    1.4618 N.am    1  LIG1       -0.2947
     23 O          -7.7352   -0.2126    2.8082 O.2     1  LIG1       -0.2716
     24 CL         -1.8651   -1.5393   -4.8320 Cl      1  LIG1       -0.0842
     25 H          -2.7463    2.7046   -2.6668 H       1  LIG1        0.0624
     26 H         -10.1648   -0.6380    1.7826 H       1  LIG1        0.0631
     27 H          -7.2503   -3.7790    1.6016 H       1  LIG1        0.0631
     28 H         -11.9350   -2.2659    1.2670 H       1  LIG1        0.0626
     29 H          -9.0368   -5.3924    1.0967 H       1  LIG1        0.0626
     30 H          -3.8009    1.6770   -0.6955 H       1  LIG1        0.0642
     31 H          -1.8941    1.2871   -4.4893 H       1  LIG1        0.0638
     32 H          -3.1366   -2.2014   -2.3712 H       1  LIG1        0.0658
     33 H          -5.2566    0.8231    0.0805 H       1  LIG1        0.0485
     34 H          -3.6619    0.7699    0.8685 H       1  LIG1        0.0485
     35 H          -6.0307   -0.8221   -1.1947 H       1  LIG1        0.0485
     36 H          -5.1112   -2.3108   -1.5191 H       1  LIG1        0.0485
     37 H          -5.5520    0.4251    2.4872 H       1  LIG1        0.0486
     38 H          -4.4503   -0.9743    2.4152 H       1  LIG1        0.0486
     39 H          -5.4229   -3.0503    0.8147 H       1  LIG1        0.0486
     40 H          -7.0095   -2.6857    0.0886 H       1  LIG1        0.0486
     41 H         -13.4866   -5.6529    1.7435 H       1  LIG1        0.0236
     42 H         -12.2018   -5.2234    2.8982 H       1  LIG1        0.0236
     43 H         -13.1338   -3.9423    2.0867 H       1  LIG1        0.0236
     44 H         -12.8120   -3.5190   -0.3545 H       1  LIG1        0.0236
     45 H         -11.6508   -4.4984   -1.2822 H       1  LIG1        0.0236
     46 H         -13.1647   -5.2295   -0.6977 H       1  LIG1        0.0236
     47 H         -11.2443   -5.9091    0.7161 H       1  LIG1        0.0346
@<TRIPOS>BOND
     1     1     6   ar
     2     1     7   ar
     3     2     4   ar
     4     2     9   ar
     5     3     5   ar
     6     3     9   ar
     7     4    10   ar
     8     5    10   ar
     9     6    11   ar
    10     7    12   ar
    11     8    11   ar
    12     8    12   ar
    13     9    13    1
    14    10    20    1
    15    11    21    1
    16    12    24    1
    17    13    22   am
    18    13    23    2
    19    14    16    1
    20    14    21    1
    21    15    17    1
    22    15    21    1
    23    16    22    1
    24    17    22    1
    25    18    20    1
    26    19    20    1
    27     1    25    1
    28     2    26    1
    29     3    27    1
    30     4    28    1
    31     5    29    1
    32     6    30    1
    33     7    31    1
    34     8    32    1
    35    14    33    1
    36    14    34    1
    37    15    35    1
    38    15    36    1
    39    16    37    1
    40    16    38    1
    41    17    39    1
    42    17    40    1
    43    18    41    1
    44    18    42    1
    45    18    43    1
    46    19    44    1
    47    19    45    1
    48    19    46    1
    49    20    47    1
