@<TRIPOS>MOLECULE
ChEBML348293
 36 39 0 0 0
SMALL
USER_CHARGES

@<TRIPOS>ATOM
      1 C          -3.5679   -2.4417   -0.8445 C.ar    1  LIG1       -0.0515
      2 C         -10.3737   -5.3040    0.6736 C.ar    1  LIG1       -0.0376
      3 C         -11.7231   -5.6572    0.7649 C.ar    1  LIG1       -0.0299
      4 C          -2.7999   -1.6938   -1.7445 C.ar    1  LIG1       -0.0428
      5 C         -12.2916   -3.4786    1.6747 C.ar    1  LIG1       -0.0226
      6 C          -5.6873   -2.3023    0.6696 C.ar    1  LIG1       -0.0276
      7 C         -10.2167   -1.9162    1.9160 C.ar    1  LIG1       -0.0275
      8 C          -4.2733    0.2219   -1.4925 C.ar    1  LIG1       -0.0215
      9 C          -4.7057   -1.8532   -0.2577 C.ar    1  LIG1       -0.0021
     10 C         -10.9368   -3.1000    1.5920 C.ar    1  LIG1        0.0003
     11 C         -10.0111   -4.0196    1.0944 C.ar    1  LIG1        0.0379
     12 C          -5.0315   -0.5377   -0.5946 C.ar    1  LIG1        0.0392
     13 C         -12.6689   -4.7602    1.2574 C.ar    1  LIG1        0.0753
     14 C          -3.1490   -0.3827   -2.0620 C.ar    1  LIG1        0.0425
     15 C          -6.5733   -1.2697    0.8742 C.ar    1  LIG1        0.0811
     16 C          -8.8924   -2.1360    1.6147 C.ar    1  LIG1        0.0811
     17 C          -7.7883   -1.2420    1.7669 C.2     1  LIG1        0.2206
     18 C         -14.8966   -4.1718    1.8467 C.3     1  LIG1        0.0422
     19 N          -8.7782   -3.4073    1.1196 N.ar    1  LIG1       -0.3112
     20 N          -6.1696   -0.2099    0.1073 N.ar    1  LIG1       -0.3111
     21 O          -7.7747   -0.3726    2.6693 O.2     1  LIG1       -0.2856
     22 O         -13.9774   -5.1340    1.3343 O.3     1  LIG1       -0.3493
     23 CL         -2.1816    0.5100   -3.1744 Cl      1  LIG1       -0.0842
     24 H          -3.2849   -3.4630   -0.6058 H       1  LIG1        0.0630
     25 H          -9.6381   -6.0028    0.2897 H       1  LIG1        0.0643
     26 H         -12.0315   -6.6497    0.4444 H       1  LIG1        0.0651
     27 H          -1.9237   -2.1569   -2.1929 H       1  LIG1        0.0638
     28 H         -13.0353   -2.7846    2.0569 H       1  LIG1        0.0657
     29 H          -5.7364   -3.2774    1.1353 H       1  LIG1        0.0651
     30 H         -10.6279   -1.0031    2.3260 H       1  LIG1        0.0651
     31 H          -4.5546    1.2428   -1.7321 H       1  LIG1        0.0658
     32 H         -15.9032   -4.5967    1.8545 H       1  LIG1        0.0535
     33 H         -14.8727   -3.2752    1.2223 H       1  LIG1        0.0535
     34 H         -14.6059   -3.9107    2.8670 H       1  LIG1        0.0535
     35 H          -7.9156   -3.8374    0.8153 H       1  LIG1        0.1529
     36 H          -6.6367    0.6854    0.0604 H       1  LIG1        0.1529
@<TRIPOS>BOND
     1     1     4   ar
     2     1     9   ar
     3     2     3   ar
     4     2    11   ar
     5     3    13   ar
     6     4    14   ar
     7     5    10   ar
     8     5    13   ar
     9     6     9   ar
    10     6    15   ar
    11     7    10   ar
    12     7    16   ar
    13     8    12   ar
    14     8    14   ar
    15     9    12   ar
    16    10    11   ar
    17    11    19   ar
    18    12    20   ar
    19    13    22    1
    20    14    23    1
    21    15    17    1
    22    15    20   ar
    23    16    17    1
    24    16    19   ar
    25    17    21    2
    26    18    22    1
    27     1    24    1
    28     2    25    1
    29     3    26    1
    30     4    27    1
    31     5    28    1
    32     6    29    1
    33     7    30    1
    34     8    31    1
    35    18    32    1
    36    18    33    1
    37    18    34    1
    38    19    35    1
    39    20    36    1
