@<TRIPOS>MOLECULE
ChEBML300422
 47 49 0 0 0
SMALL
USER_CHARGES

@<TRIPOS>ATOM
      1 C         -10.2116   -5.0567    0.2734 C.ar    1  LIG1       -0.0387
      2 C         -11.5146   -5.5128    0.4928 C.ar    1  LIG1       -0.0416
      3 C         -11.9669   -3.6690    2.0070 C.ar    1  LIG1       -0.0343
      4 C          -9.9211   -2.0760    2.2924 C.ar    1  LIG1       -0.0262
      5 C         -10.6577   -3.1901    1.8014 C.ar    1  LIG1       -0.0007
      6 C          -9.8120   -3.8936    0.9411 C.ar    1  LIG1        0.0379
      7 C         -12.3804   -4.8313    1.3458 C.ar    1  LIG1        0.0413
      8 C          -8.6657   -2.1240    1.7314 C.ar    1  LIG1        0.0945
      9 C          -7.5307   -1.1863    1.9301 C.2     1  LIG1        0.2576
     10 C          -4.6624    2.5448    0.3010 C.2     1  LIG1        0.2267
     11 C          -4.3944   -0.7357    0.0362 C.2     1  LIG1        0.2323
     12 C          -1.3956   -0.5666   -3.0256 C.3     1  LIG1       -0.0515
     13 C          -2.5780    0.0608   -3.7693 C.3     1  LIG1       -0.0515
     14 C          -1.7977   -0.6081   -1.5536 C.3     1  LIG1       -0.0344
     15 C          -3.6305    0.3663   -2.7067 C.3     1  LIG1       -0.0344
     16 C          -2.8165    0.5182   -1.4274 C.3     1  LIG1        0.0259
     17 C          -3.5752    1.5628    0.6721 C.3     1  LIG1        0.0911
     18 C          -5.1750   -0.6806    1.3375 C.3     1  LIG1        0.0887
     19 N          -8.6096   -3.2236    0.9177 N.ar    1  LIG1       -0.3101
     20 N          -4.6844    3.6417    1.1354 N.am    1  LIG1       -0.3278
     21 N          -6.3635   -1.4776    1.2310 N.am    1  LIG1       -0.3013
     22 N          -3.6143    0.4119   -0.2404 N.am    1  LIG1       -0.2883
     23 O          -7.6646   -0.2359    2.6965 O.2     1  LIG1       -0.2704
     24 O          -5.4121    2.4059   -0.6616 O.2     1  LIG1       -0.2760
     25 O          -4.4597   -1.7253   -0.6979 O.2     1  LIG1       -0.2756
     26 CL        -13.9797   -5.4237    1.5896 Cl      1  LIG1       -0.0843
     27 H          -9.5383   -5.5887   -0.3905 H       1  LIG1        0.0643
     28 H         -11.8424   -6.4160   -0.0176 H       1  LIG1        0.0639
     29 H         -12.6409   -3.1366    2.6730 H       1  LIG1        0.0645
     30 H         -10.2756   -1.3218    2.9824 H       1  LIG1        0.0651
     31 H          -1.1609   -1.5671   -3.4024 H       1  LIG1        0.0267
     32 H          -0.5020    0.0540   -3.1595 H       1  LIG1        0.0267
     33 H          -2.2561    0.9842   -4.2646 H       1  LIG1        0.0267
     34 H          -2.9737   -0.6058   -4.5419 H       1  LIG1        0.0267
     35 H          -2.2531   -1.5782   -1.3167 H       1  LIG1        0.0285
     36 H          -0.9411   -0.4737   -0.8857 H       1  LIG1        0.0285
     37 H          -4.2103    1.2640   -2.9433 H       1  LIG1        0.0285
     38 H          -4.3353   -0.4711   -2.6277 H       1  LIG1        0.0285
     39 H          -2.3141    1.4925   -1.4062 H       1  LIG1        0.0506
     40 H          -3.7151    1.1919    1.6912 H       1  LIG1        0.0570
     41 H          -2.5990    2.0468    0.5818 H       1  LIG1        0.0570
     42 H          -4.5767   -1.0873    2.1569 H       1  LIG1        0.0567
     43 H          -5.4846    0.3453    1.5531 H       1  LIG1        0.0567
     44 H          -7.8038   -3.5060    0.3767 H       1  LIG1        0.1529
     45 H          -4.0211    3.7301    1.8980 H       1  LIG1        0.1455
     46 H          -5.3537    4.3966    1.0235 H       1  LIG1        0.1455
     47 H          -6.3154   -2.3229    0.6630 H       1  LIG1        0.1503
@<TRIPOS>BOND
     1     1     2   ar
     2     1     6   ar
     3     2     7   ar
     4     3     5   ar
     5     3     7   ar
     6     4     5   ar
     7     4     8   ar
     8     5     6   ar
     9     6    19   ar
    10     7    26    1
    11     8     9    1
    12     8    19   ar
    13     9    21   am
    14     9    23    2
    15    10    17    1
    16    10    20   am
    17    10    24    2
    18    11    18    1
    19    11    22   am
    20    11    25    2
    21    12    13    1
    22    12    14    1
    23    13    15    1
    24    14    16    1
    25    15    16    1
    26    16    22    1
    27    17    22    1
    28    18    21    1
    29     1    27    1
    30     2    28    1
    31     3    29    1
    32     4    30    1
    33    12    31    1
    34    12    32    1
    35    13    33    1
    36    13    34    1
    37    14    35    1
    38    14    36    1
    39    15    37    1
    40    15    38    1
    41    16    39    1
    42    17    40    1
    43    17    41    1
    44    18    42    1
    45    18    43    1
    46    19    44    1
    47    20    45    1
    48    20    46    1
    49    21    47    1
