@<TRIPOS>MOLECULE
ChEBML1066938
 34 36 0 0 0
SMALL
USER_CHARGES

@<TRIPOS>ATOM
      1 C          -4.8247    0.3827   -1.2415 C.ar    1  LIG1       -0.0435
      2 C          -5.1535   -0.0482    0.0390 C.ar    1  LIG1       -0.0555
      3 C         -10.2476   -5.2253    0.5592 C.ar    1  LIG1       -0.0376
      4 C         -11.6008   -5.5664    0.6404 C.ar    1  LIG1       -0.0299
      5 C         -12.1084   -3.5078    1.8241 C.ar    1  LIG1       -0.0226
      6 C         -10.0004   -2.0186    2.2028 C.ar    1  LIG1       -0.0279
      7 C          -5.1388   -0.4471   -2.3057 C.ar    1  LIG1        0.0268
      8 C          -6.0492   -2.0337   -0.9156 C.ar    1  LIG1        0.0304
      9 C         -10.7492   -3.1426    1.7545 C.ar    1  LIG1        0.0003
     10 C          -5.7776   -1.2783    0.2137 C.ar    1  LIG1       -0.0218
     11 C          -9.8521   -4.0080    1.1250 C.ar    1  LIG1        0.0379
     12 C         -12.5185   -4.7224    1.2625 C.ar    1  LIG1        0.0753
     13 C          -8.6875   -2.2200    1.8438 C.ar    1  LIG1        0.0750
     14 C          -7.5642   -1.3684    2.0767 C.2     1  LIG1        0.1808
     15 C         -14.1893   -6.3310    0.7366 C.3     1  LIG1        0.0422
     16 C          -6.1477   -1.7738    1.5901 C.3     1  LIG1        0.0389
     17 N          -5.7448   -1.6485   -2.1753 N.ar    1  LIG1       -0.2644
     18 N          -8.6080   -3.4224    1.1940 N.ar    1  LIG1       -0.3115
     19 O          -7.6828   -0.2679    2.6821 O.2     1  LIG1       -0.2923
     20 O         -13.8315   -5.0828    1.3258 O.3     1  LIG1       -0.3493
     21 H          -4.3381    1.3381   -1.4015 H       1  LIG1        0.0639
     22 H          -4.9201    0.5807    0.8938 H       1  LIG1        0.0627
     23 H          -9.5339   -5.8829    0.0743 H       1  LIG1        0.0643
     24 H         -11.9345   -6.5072    0.2086 H       1  LIG1        0.0651
     25 H         -12.8303   -2.8547    2.3068 H       1  LIG1        0.0657
     26 H         -10.3853   -1.1567    2.7317 H       1  LIG1        0.0651
     27 H          -4.9027   -0.1566   -3.3241 H       1  LIG1        0.0839
     28 H          -6.5348   -3.0019   -0.8416 H       1  LIG1        0.0842
     29 H         -15.2627   -6.4969    0.8563 H       1  LIG1        0.0535
     30 H         -13.6294   -7.1364    1.2188 H       1  LIG1        0.0535
     31 H         -13.9433   -6.3053   -0.3276 H       1  LIG1        0.0535
     32 H          -6.0873   -2.8685    1.5990 H       1  LIG1        0.0401
     33 H          -5.4187   -1.3882    2.3126 H       1  LIG1        0.0401
     34 H          -7.7606   -3.8250    0.8178 H       1  LIG1        0.1529
@<TRIPOS>BOND
     1     1     2   ar
     2     1     7   ar
     3     2    10   ar
     4     3     4   ar
     5     3    11   ar
     6     4    12   ar
     7     5     9   ar
     8     5    12   ar
     9     6     9   ar
    10     6    13   ar
    11     7    17   ar
    12     8    10   ar
    13     8    17   ar
    14     9    11   ar
    15    10    16    1
    16    11    18   ar
    17    12    20    1
    18    13    14    1
    19    13    18   ar
    20    14    16    1
    21    14    19    2
    22    15    20    1
    23     1    21    1
    24     2    22    1
    25     3    23    1
    26     4    24    1
    27     5    25    1
    28     6    26    1
    29     7    27    1
    30     8    28    1
    31    15    29    1
    32    15    30    1
    33    15    31    1
    34    16    32    1
    35    16    33    1
    36    18    34    1
