@<TRIPOS>MOLECULE
ChEBML570149
 35 36 0 0 0
SMALL
USER_CHARGES

@<TRIPOS>ATOM
      1 C         -12.5205   -4.7625    1.2393 C.ar    1  LIG1       -0.0615
      2 C         -11.6273   -5.5363    0.5009 C.ar    1  LIG1       -0.0603
      3 C         -12.1016   -3.5786    1.8573 C.ar    1  LIG1       -0.0530
      4 C         -10.2907   -5.1535    0.3563 C.ar    1  LIG1       -0.0402
      5 C         -10.0075   -2.0621    2.2025 C.ar    1  LIG1       -0.0262
      6 C         -10.7588   -3.1725    1.7255 C.ar    1  LIG1       -0.0022
      7 C          -9.8861   -3.9677    0.9796 C.ar    1  LIG1        0.0378
      8 C          -8.7173   -2.2022    1.7457 C.ar    1  LIG1        0.0945
      9 C          -7.6002   -1.3389    1.9652 C.2     1  LIG1        0.2574
     10 C          -5.5110    0.7395   -0.7933 C.3     1  LIG1       -0.0457
     11 C          -4.2155   -0.8816   -2.1695 C.3     1  LIG1       -0.0457
     12 C          -5.1406   -0.9423    1.5360 C.3     1  LIG1        0.0505
     13 C          -4.2647   -1.1133    0.3092 C.3     1  LIG1       -0.0189
     14 N          -8.6540   -3.3544    1.0089 N.ar    1  LIG1       -0.3101
     15 N          -6.3636   -1.6979    1.3871 N.am    1  LIG1       -0.3050
     16 N          -5.0060   -0.6785   -0.9003 N.4     1  LIG1        0.2429
     17 O          -7.7004   -0.3008    2.6669 O.2     1  LIG1       -0.2704
     18 H         -13.5553   -5.0804    1.3368 H       1  LIG1        0.0623
     19 H         -11.9742   -6.4522    0.0298 H       1  LIG1        0.0623
     20 H         -12.8086   -2.9845    2.4297 H       1  LIG1        0.0629
     21 H          -9.5954   -5.7563   -0.2182 H       1  LIG1        0.0642
     22 H         -10.3760   -1.2495    2.8145 H       1  LIG1        0.0651
     23 H          -4.6443    1.3964   -0.6991 H       1  LIG1        0.0777
     24 H          -6.0759    0.9624   -1.7003 H       1  LIG1        0.0777
     25 H          -6.1481    0.8014    0.0911 H       1  LIG1        0.0777
     26 H          -3.3189   -0.2622   -2.1072 H       1  LIG1        0.0777
     27 H          -3.9576   -1.9402   -2.2367 H       1  LIG1        0.0777
     28 H          -4.8452   -0.5771   -3.0076 H       1  LIG1        0.0777
     29 H          -4.6260   -1.2776    2.4426 H       1  LIG1        0.0522
     30 H          -5.4043    0.1124    1.6646 H       1  LIG1        0.0522
     31 H          -3.9992   -2.1627    0.1531 H       1  LIG1        0.0831
     32 H          -3.3552   -0.5070    0.3584 H       1  LIG1        0.0831
     33 H          -7.8242   -3.7073    0.5520 H       1  LIG1        0.1529
     34 H          -6.3054   -2.5750    0.8802 H       1  LIG1        0.1499
     35 H          -5.8462   -1.2755   -0.9880 H       1  LIG1        0.1998
@<TRIPOS>BOND
     1     1     2   ar
     2     1     3   ar
     3     2     4   ar
     4     3     6   ar
     5     4     7   ar
     6     5     6   ar
     7     5     8   ar
     8     6     7   ar
     9     7    14   ar
    10     8     9    1
    11     8    14   ar
    12     9    15   am
    13     9    17    2
    14    10    16    1
    15    11    16    1
    16    12    13    1
    17    12    15    1
    18    13    16    1
    19     1    18    1
    20     2    19    1
    21     3    20    1
    22     4    21    1
    23     5    22    1
    24    10    23    1
    25    10    24    1
    26    10    25    1
    27    11    26    1
    28    11    27    1
    29    11    28    1
    30    12    29    1
    31    12    30    1
    32    13    31    1
    33    13    32    1
    34    14    33    1
    35    15    34    1
    36    16    35    1
