@<TRIPOS>MOLECULE
ChEBML227797
 45 48 0 0 0
SMALL
USER_CHARGES

@<TRIPOS>ATOM
      1 C          -2.7573   -3.2852   -1.4885 C.ar    1  LIG1       -0.0618
      2 C          -3.1355   -2.4071   -2.4878 C.ar    1  LIG1       -0.0604
      3 C          -3.0154   -2.9825   -0.1644 C.ar    1  LIG1       -0.0571
      4 C         -10.4049   -5.1109    0.3979 C.ar    1  LIG1       -0.0376
      5 C          -3.7779   -1.2279   -2.1663 C.ar    1  LIG1       -0.0402
      6 C         -11.7295   -5.4437    0.5652 C.ar    1  LIG1       -0.0299
      7 C         -12.0963   -3.4789    1.9028 C.ar    1  LIG1       -0.0226
      8 C          -9.9658   -2.0445    2.2084 C.ar    1  LIG1       -0.0261
      9 C         -10.7481   -3.1300    1.7454 C.ar    1  LIG1        0.0004
     10 C          -3.6530   -1.8017    0.1636 C.ar    1  LIG1       -0.0240
     11 C          -9.8980   -3.9543    0.9836 C.ar    1  LIG1        0.0380
     12 C          -4.0445   -0.9238   -0.8369 C.ar    1  LIG1        0.0384
     13 C         -12.5754   -4.6317    1.3187 C.ar    1  LIG1        0.0753
     14 C          -8.7015   -2.2160    1.7409 C.ar    1  LIG1        0.0945
     15 C          -5.2484    0.4296    0.7118 C.2     1  LIG1        0.2392
     16 C          -7.5698   -1.3110    1.9917 C.2     1  LIG1        0.2578
     17 C          -3.9203   -1.4672    1.6086 C.3     1  LIG1        0.0014
     18 C          -5.2300   -0.6867    1.7223 C.3     1  LIG1        0.1042
     19 C          -4.8680    1.3075   -1.5210 C.3     1  LIG1        0.0080
     20 C         -14.0734   -6.2008    0.7630 C.3     1  LIG1        0.0422
     21 N          -8.6485   -3.3762    0.9935 N.ar    1  LIG1       -0.3101
     22 N          -4.7245    0.2536   -0.5136 N.am    1  LIG1       -0.2728
     23 N          -6.3574   -1.5883    1.4726 N.am    1  LIG1       -0.2982
     24 O          -5.7409    1.4981    1.0064 O.2     1  LIG1       -0.2749
     25 O          -7.7281   -0.3121    2.6677 O.2     1  LIG1       -0.2704
     26 O         -13.8819   -4.9759    1.4736 O.3     1  LIG1       -0.3493
     27 H          -2.2591   -4.2091   -1.7430 H       1  LIG1        0.0623
     28 H          -2.9278   -2.6438   -3.5209 H       1  LIG1        0.0623
     29 H          -2.7179   -3.6694    0.6140 H       1  LIG1        0.0626
     30 H          -9.7581   -5.7475   -0.1876 H       1  LIG1        0.0643
     31 H          -4.0722   -0.5423   -2.9472 H       1  LIG1        0.0642
     32 H         -12.1171   -6.3425    0.1087 H       1  LIG1        0.0651
     33 H         -12.7555   -2.8498    2.4826 H       1  LIG1        0.0657
     34 H         -10.3119   -1.2268    2.8233 H       1  LIG1        0.0651
     35 H          -3.1021   -0.8614    1.9982 H       1  LIG1        0.0341
     36 H          -3.9958   -2.3885    2.1863 H       1  LIG1        0.0341
     37 H          -5.3157   -0.2688    2.7253 H       1  LIG1        0.0608
     38 H          -5.7853    1.1464   -2.0872 H       1  LIG1        0.0437
     39 H          -4.9113    2.2784   -1.0275 H       1  LIG1        0.0437
     40 H          -4.0140    1.2817   -2.1978 H       1  LIG1        0.0437
     41 H         -13.4195   -6.9678    1.1781 H       1  LIG1        0.0535
     42 H         -15.1119   -6.5180    0.8589 H       1  LIG1        0.0535
     43 H         -13.8350   -6.0511   -0.2900 H       1  LIG1        0.0535
     44 H          -7.8606   -3.7261    0.5488 H       1  LIG1        0.1529
     45 H          -6.2313   -2.3848    0.9336 H       1  LIG1        0.1506
@<TRIPOS>BOND
     1     1     2   ar
     2     1     3   ar
     3     2     5   ar
     4     3    10   ar
     5     4     6   ar
     6     4    11   ar
     7     5    12   ar
     8     6    13   ar
     9     7     9   ar
    10     7    13   ar
    11     8     9   ar
    12     8    14   ar
    13     9    11   ar
    14    10    12   ar
    15    10    17    1
    16    11    21   ar
    17    12    22    1
    18    13    26    1
    19    14    16    1
    20    14    21   ar
    21    15    18    1
    22    15    22   am
    23    15    24    2
    24    16    23   am
    25    16    25    2
    26    17    18    1
    27    18    23    1
    28    19    22    1
    29    20    26    1
    30     1    27    1
    31     2    28    1
    32     3    29    1
    33     4    30    1
    34     5    31    1
    35     6    32    1
    36     7    33    1
    37     8    34    1
    38    17    35    1
    39    17    36    1
    40    18    37    1
    41    19    38    1
    42    19    39    1
    43    19    40    1
    44    20    41    1
    45    20    42    1
    46    20    43    1
    47    21    44    1
    48    23    45    1
