@<TRIPOS>MOLECULE
ChEBML467748
 40 42 0 0 0
SMALL
USER_CHARGES

@<TRIPOS>ATOM
      1 C         -12.4916   -5.4668    1.2489 C.ar    1  LIG1        0.0000
      2 C         -11.3210   -6.2094    1.3719 C.ar    1  LIG1        0.0000
      3 C         -12.4478   -4.0749    1.3332 C.ar    1  LIG1        0.0000
      4 C         -10.1022   -5.5630    1.5795 C.ar    1  LIG1        0.0000
      5 C         -11.1672   -2.0073    1.6293 C.ar    1  LIG1        0.0000
      6 C          -9.9484   -1.3609    1.8370 C.ar    1  LIG1        0.0000
      7 C          -8.8215   -3.4954    1.8757 C.ar    1  LIG1        0.0000
      8 C         -11.2298   -3.4076    1.5419 C.ar    1  LIG1        0.0000
      9 C         -10.0395   -4.1627    1.6669 C.ar    1  LIG1        0.0000
     10 C          -8.7779   -2.1035    1.9599 C.ar    1  LIG1        0.0000
     11 C          -3.0082    0.9770   -2.9548 C.ar    1  LIG1        0.0000
     12 C          -2.3287   -0.1844   -2.9076 C.ar    1  LIG1        0.0000
     13 C          -3.7291   -0.5180   -1.0476 C.ar    1  LIG1        0.0000
     14 C          -5.3032   -0.2663    0.5885 C.2     1  LIG1        0.0000
     15 C           0.0945   -0.1383   -3.3234 C.2     1  LIG1        0.0000
     16 C          -1.2559   -0.6047   -3.8497 C.3     1  LIG1        0.0000
     17 C          -6.6287   -0.9915    0.5821 C.3     1  LIG1        0.0000
     18 N          -4.3154   -1.0176   -0.0145 N.am    1  LIG1        0.0000
     19 N          -2.7294   -0.9948   -1.8602 N.ar    1  LIG1        0.0000
     20 O           0.4130   -0.5913   -2.1881 O.co2   1  LIG1       -0.5000
     21 O          -5.1681    0.8511    1.0816 O.2     1  LIG1        0.0000
     22 O           0.7295    0.6385   -4.0909 O.co2   1  LIG1       -0.5000
     23 O          -7.5314   -0.0030    2.8365 O.2     1  LIG1       -0.5000
     24 O          -6.3305   -2.2173    2.8630 O.2     1  LIG1       -0.5000
     25 O          -2.2063   -2.2379   -1.5831 O.3     1  LIG1        0.0000
     26 S          -4.1963    1.0959   -1.6636 S.2     1  LIG1        0.0000
     27 S          -7.2534   -1.2921    2.2199 S.O2    1  LIG1        0.0000
     28 H         -13.4399   -5.9707    1.0864 H       1  LIG1        0.0000
     29 H         -11.3559   -7.2929    1.3049 H       1  LIG1        0.0000
     30 H         -13.3752   -3.5144    1.2340 H       1  LIG1        0.0000
     31 H          -9.2000   -6.1638    1.6725 H       1  LIG1        0.0000
     32 H         -12.0694   -1.4067    1.5349 H       1  LIG1        0.0000
     33 H          -9.9252   -0.2761    1.9016 H       1  LIG1        0.0000
     34 H          -7.8995   -4.0661    1.9725 H       1  LIG1        0.0000
     35 H          -2.8690    1.7641   -3.6822 H       1  LIG1        0.0000
     36 H          -1.2737   -1.6952   -3.9436 H       1  LIG1        0.0000
     37 H          -1.4553   -0.1668   -4.8331 H       1  LIG1        0.0000
     38 H          -6.5159   -1.9641    0.0960 H       1  LIG1        0.0000
     39 H          -7.3761   -0.3914    0.0567 H       1  LIG1        0.0000
     40 H          -1.5262   -2.3661   -2.2864 H       1  LIG1        0.0000
@<TRIPOS>BOND
     1     1     2   ar
     2     1     3   ar
     3     2     4   ar
     4     3     8   ar
     5     4     9   ar
     6     5     6   ar
     7     5     8   ar
     8     6    10   ar
     9     7     9   ar
    10     7    10   ar
    11     8     9   ar
    12    10    27    1
    13    11    12   ar
    14    11    26   ar
    15    12    16    1
    16    12    19   ar
    17    13    18    2
    18    13    19   ar
    19    13    26   ar
    20    14    17    1
    21    14    18    1
    22    14    21    2
    23    15    16    1
    24    15    20   ar
    25    15    22   ar
    26    17    27    1
    27    19    25    1
    28    23    27    2
    29    24    27    2
    30     1    28    1
    31     2    29    1
    32     3    30    1
    33     4    31    1
    34     5    32    1
    35     6    33    1
    36     7    34    1
    37    11    35    1
    38    16    36    1
    39    16    37    1
    40    17    38    1
    41    17    39    1
    42    25    40    1
