@<TRIPOS>MOLECULE
ChEBML310560
 45 47 0 0 0
SMALL
USER_CHARGES

@<TRIPOS>ATOM
      1 C         -11.7215   -5.7450    0.9207 C.ar    1  LIG1       -0.0600
      2 C         -12.6952   -4.8692    1.3878 C.ar    1  LIG1       -0.0610
      3 C         -10.3788   -5.3582    0.8798 C.ar    1  LIG1       -0.0352
      4 C         -12.3552   -3.5865    1.8254 C.ar    1  LIG1       -0.0460
      5 C         -10.0079   -4.0678    1.3161 C.ar    1  LIG1        0.0785
      6 C         -11.0046   -3.2046    1.7813 C.ar    1  LIG1        0.0396
      7 C          -8.7496   -2.3217    1.8007 C.ar    1  LIG1        0.1466
      8 C          -7.5480   -1.4963    1.9477 C.2     1  LIG1        0.2080
      9 C          -5.5153   -1.0295   -0.7220 C.2     1  LIG1        0.2626
     10 C          -5.0261   -2.0071    2.4946 C.3     1  LIG1       -0.0109
     11 C          -4.4626   -0.8913    1.6068 C.3     1  LIG1        0.0173
     12 C          -6.2091   -2.1247    1.5258 C.3     1  LIG1        0.0926
     13 C          -1.7093    0.4125   -2.5866 C.3     1  LIG1       -0.0649
     14 C          -3.7350   -1.8859   -2.9972 C.3     1  LIG1       -0.0567
     15 C          -3.0636    0.5521   -3.2697 C.3     1  LIG1       -0.0478
     16 C          -4.4302   -0.1420   -1.2429 C.3     1  LIG1        0.0541
     17 C          -4.1309   -0.4264   -2.7312 C.3     1  LIG1        0.0066
     18 N          -8.7219   -3.5478    1.3331 N.ar    1  LIG1       -0.2367
     19 N          -5.4303   -1.3122    0.6134 N.am    1  LIG1       -0.2863
     20 N          -4.7962    1.2798   -1.0177 N.4     1  LIG1        0.2400
     21 O          -7.5405   -0.3504    2.3853 O.2     1  LIG1       -0.2896
     22 O          -6.4004   -1.4578   -1.4617 O.2     1  LIG1       -0.2709
     23 S         -10.2833   -1.7091    2.2459 S.2     1  LIG1       -0.0641
     24 H         -12.0045   -6.7391    0.5851 H       1  LIG1        0.0623
     25 H         -13.7350   -5.1845    1.4127 H       1  LIG1        0.0623
     26 H          -9.6263   -6.0507    0.5132 H       1  LIG1        0.0646
     27 H         -13.1212   -2.9084    2.1888 H       1  LIG1        0.0635
     28 H          -4.3977   -2.9042    2.5391 H       1  LIG1        0.0306
     29 H          -5.2719   -1.7010    3.5160 H       1  LIG1        0.0306
     30 H          -4.6384    0.1280    1.9614 H       1  LIG1        0.0470
     31 H          -3.4218   -1.0197    1.3012 H       1  LIG1        0.0470
     32 H          -6.3497   -3.1477    1.1581 H       1  LIG1        0.0594
     33 H          -1.3231   -0.6080   -2.6634 H       1  LIG1        0.0230
     34 H          -1.8008    0.6504   -1.5218 H       1  LIG1        0.0230
     35 H          -0.9756    1.0966   -3.0241 H       1  LIG1        0.0230
     36 H          -2.8110   -2.1422   -2.4693 H       1  LIG1        0.0236
     37 H          -4.5111   -2.5827   -2.6643 H       1  LIG1        0.0236
     38 H          -3.5499   -2.0627   -4.0612 H       1  LIG1        0.0236
     39 H          -3.4049    1.5884   -3.1645 H       1  LIG1        0.0269
     40 H          -2.9201    0.3724   -4.3422 H       1  LIG1        0.0269
     41 H          -3.5395   -0.3286   -0.6325 H       1  LIG1        0.0957
     42 H          -5.0602   -0.2411   -3.2885 H       1  LIG1        0.0362
     43 H          -5.7775    1.3636   -0.7339 H       1  LIG1        0.1971
     44 H          -4.6648    1.8299   -1.8726 H       1  LIG1        0.1971
     45 H          -4.2160    1.6938   -0.2810 H       1  LIG1        0.1971
@<TRIPOS>BOND
     1     1     2   ar
     2     1     3   ar
     3     2     4   ar
     4     3     5   ar
     5     4     6   ar
     6     5     6   ar
     7     5    18   ar
     8     6    23   ar
     9     7     8    1
    10     7    18   ar
    11     7    23   ar
    12     8    12    1
    13     8    21    2
    14     9    16    1
    15     9    19   am
    16     9    22    2
    17    10    11    1
    18    10    12    1
    19    11    19    1
    20    12    19    1
    21    13    15    1
    22    14    17    1
    23    15    17    1
    24    16    17    1
    25    16    20    1
    26     1    24    1
    27     2    25    1
    28     3    26    1
    29     4    27    1
    30    10    28    1
    31    10    29    1
    32    11    30    1
    33    11    31    1
    34    12    32    1
    35    13    33    1
    36    13    34    1
    37    13    35    1
    38    14    36    1
    39    14    37    1
    40    14    38    1
    41    15    39    1
    42    15    40    1
    43    16    41    1
    44    17    42    1
    45    20    43    1
    46    20    44    1
    47    20    45    1
