@<TRIPOS>MOLECULE
ChEBML300386
 47 49 0 0 0
SMALL
USER_CHARGES

@<TRIPOS>ATOM
      1 C         -10.3427   -5.1744    0.4638 C.ar    1  LIG1       -0.0387
      2 C         -11.6798   -5.5304    0.6621 C.ar    1  LIG1       -0.0416
      3 C         -12.0854   -3.5144    1.9536 C.ar    1  LIG1       -0.0343
      4 C          -9.9603   -2.0182    2.1778 C.ar    1  LIG1       -0.0262
      5 C         -10.7413   -3.1346    1.7670 C.ar    1  LIG1       -0.0007
      6 C          -9.9026   -3.9717    1.0279 C.ar    1  LIG1        0.0379
      7 C         -12.5394   -4.7147    1.3951 C.ar    1  LIG1        0.0413
      8 C          -8.6864   -2.1961    1.6896 C.ar    1  LIG1        0.0945
      9 C          -3.6752    1.9394    2.8197 C.2     1  LIG1       -0.1015
     10 C          -3.1107    1.7484    1.6219 C.2     1  LIG1       -0.0744
     11 C          -7.5059   -1.3083    1.8486 C.2     1  LIG1        0.2576
     12 C          -4.6307   -0.6120   -0.0625 C.2     1  LIG1        0.2321
     13 C          -2.3924    0.0849   -3.6542 C.3     1  LIG1       -0.0515
     14 C          -3.1493    1.4115   -3.5448 C.3     1  LIG1       -0.0515
     15 C          -2.5723   -0.6151   -2.3096 C.3     1  LIG1       -0.0344
     16 C          -3.7446    1.4428   -2.1395 C.3     1  LIG1       -0.0344
     17 C          -2.8226    0.5319   -1.3379 C.3     1  LIG1        0.0257
     18 C          -2.6550    0.4182    1.1184 C.3     1  LIG1        0.0323
     19 C          -5.0993   -1.0018    1.3283 C.3     1  LIG1        0.0887
     20 N          -8.6615   -3.3769    0.9972 N.ar    1  LIG1       -0.3101
     21 N          -6.3286   -1.7372    1.2436 N.am    1  LIG1       -0.3013
     22 N          -3.4046    0.0933   -0.1028 N.am    1  LIG1       -0.2937
     23 O          -7.6154   -0.2762    2.5054 O.2     1  LIG1       -0.2704
     24 O          -5.2956   -0.9075   -1.0589 O.2     1  LIG1       -0.2756
     25 CL        -14.1815   -5.1869    1.6165 Cl      1  LIG1       -0.0843
     26 H          -9.6742   -5.8106   -0.1066 H       1  LIG1        0.0643
     27 H         -12.0392   -6.4625    0.2311 H       1  LIG1        0.0639
     28 H         -12.7545   -2.8774    2.5260 H       1  LIG1        0.0645
     29 H         -10.2984   -1.1766    2.7677 H       1  LIG1        0.0651
     30 H          -3.9914    2.9307    3.1256 H       1  LIG1        0.0535
     31 H          -3.8304    1.1187    3.5115 H       1  LIG1        0.0535
     32 H          -2.9843    2.6052    0.9645 H       1  LIG1        0.0586
     33 H          -2.7669   -0.5319   -4.4773 H       1  LIG1        0.0267
     34 H          -1.3304    0.2785   -3.8443 H       1  LIG1        0.0267
     35 H          -2.4537    2.2472   -3.6837 H       1  LIG1        0.0267
     36 H          -3.9275    1.5011   -4.3093 H       1  LIG1        0.0267
     37 H          -3.4365   -1.2904   -2.3513 H       1  LIG1        0.0285
     38 H          -1.6986   -1.2137   -2.0335 H       1  LIG1        0.0285
     39 H          -3.7900    2.4572   -1.7309 H       1  LIG1        0.0285
     40 H          -4.7683    1.0482   -2.1588 H       1  LIG1        0.0285
     41 H          -1.8850    1.0484   -1.1008 H       1  LIG1        0.0506
     42 H          -2.8544   -0.3508    1.8711 H       1  LIG1        0.0514
     43 H          -1.5847    0.4038    0.8893 H       1  LIG1        0.0514
     44 H          -4.3607   -1.6470    1.8110 H       1  LIG1        0.0567
     45 H          -5.2900   -0.1096    1.9302 H       1  LIG1        0.0567
     46 H          -7.8510   -3.7599    0.5300 H       1  LIG1        0.1529
     47 H          -6.3072   -2.6391    0.7687 H       1  LIG1        0.1503
@<TRIPOS>BOND
     1     1     2   ar
     2     1     6   ar
     3     2     7   ar
     4     3     5   ar
     5     3     7   ar
     6     4     5   ar
     7     4     8   ar
     8     5     6   ar
     9     6    20   ar
    10     7    25    1
    11     8    11    1
    12     8    20   ar
    13     9    10    2
    14    10    18    1
    15    11    21   am
    16    11    23    2
    17    12    19    1
    18    12    22   am
    19    12    24    2
    20    13    14    1
    21    13    15    1
    22    14    16    1
    23    15    17    1
    24    16    17    1
    25    17    22    1
    26    18    22    1
    27    19    21    1
    28     1    26    1
    29     2    27    1
    30     3    28    1
    31     4    29    1
    32     9    30    1
    33     9    31    1
    34    10    32    1
    35    13    33    1
    36    13    34    1
    37    14    35    1
    38    14    36    1
    39    15    37    1
    40    15    38    1
    41    16    39    1
    42    16    40    1
    43    17    41    1
    44    18    42    1
    45    18    43    1
    46    19    44    1
    47    19    45    1
    48    20    46    1
    49    21    47    1
