@<TRIPOS>MOLECULE
ChEBML411661
 40 42 0 0 0
SMALL
USER_CHARGES

@<TRIPOS>ATOM
      1 C          -1.8383    0.2758   -2.9875 C.ar    1  LIG1       -0.0622
      2 C          -1.8462    1.0492   -1.8267 C.ar    1  LIG1       -0.0620
      3 C          -2.9803   -0.4324   -3.3615 C.ar    1  LIG1       -0.0620
      4 C         -10.4532   -2.1711    2.2603 C.ar    1  LIG1       -0.0535
      5 C          -2.9961    1.1142   -1.0399 C.ar    1  LIG1       -0.0585
      6 C          -4.1301   -0.3674   -2.5746 C.ar    1  LIG1       -0.0585
      7 C          -9.0818   -1.9338    2.1354 C.ar    1  LIG1       -0.0568
      8 C         -12.4164   -3.7202    1.5859 C.ar    1  LIG1       -0.0344
      9 C          -8.8516   -3.8775    0.7146 C.ar    1  LIG1       -0.0428
     10 C         -11.0515   -3.2763    1.6081 C.ar    1  LIG1       -0.0103
     11 C          -4.1381    0.4060   -1.4139 C.ar    1  LIG1       -0.0389
     12 C          -8.2914   -2.7794    1.3699 C.ar    1  LIG1       -0.0297
     13 C         -10.2345   -4.1139    0.8427 C.ar    1  LIG1        0.0200
     14 C         -12.5987   -4.8514    0.8265 C.ar    1  LIG1        0.0775
     15 C         -13.8035   -5.5731    0.5742 C.2     1  LIG1        0.2724
     16 C          -5.4346   -0.5945    0.5085 C.2     1  LIG1        0.2164
     17 C          -5.3797    0.4756   -0.5648 C.3     1  LIG1        0.0495
     18 C          -6.8280   -2.5147    1.2444 C.3     1  LIG1        0.0363
     19 N         -14.9879   -5.1053    1.1569 N.am    1  LIG1       -0.1935
     20 N          -6.5452   -1.4159    0.3568 N.am    1  LIG1       -0.3109
     21 O         -13.8225   -6.5966   -0.1588 O.2     1  LIG1       -0.2690
     22 O          -4.5911   -0.7106    1.3940 O.2     1  LIG1       -0.2773
     23 O         -16.1703   -5.8121    0.8934 O.3     1  LIG1       -0.2964
     24 S         -11.1411   -5.3965    0.1312 S.2     1  LIG1       -0.0838
     25 H          -0.9432    0.2264   -3.6007 H       1  LIG1        0.0622
     26 H          -0.9575    1.6016   -1.5359 H       1  LIG1        0.0623
     27 H          -2.9748   -1.0338   -4.2658 H       1  LIG1        0.0623
     28 H         -11.0595   -1.4998    2.8635 H       1  LIG1        0.0629
     29 H          -2.9931    1.7193   -0.1370 H       1  LIG1        0.0625
     30 H          -5.0153   -0.9228   -2.8738 H       1  LIG1        0.0625
     31 H          -8.6431   -1.0795    2.6447 H       1  LIG1        0.0626
     32 H         -13.2230   -3.2213    2.1100 H       1  LIG1        0.0643
     33 H          -8.2317   -4.5393    0.1153 H       1  LIG1        0.0638
     34 H          -5.4425    1.4608   -0.0854 H       1  LIG1        0.0414
     35 H          -6.2692    0.3803   -1.2003 H       1  LIG1        0.0414
     36 H          -6.3849   -2.2739    2.2204 H       1  LIG1        0.0518
     37 H          -6.2922   -3.3932    0.8602 H       1  LIG1        0.0518
     38 H         -14.9906   -4.2836    1.7490 H       1  LIG1        0.1839
     39 H          -7.1850   -1.2337   -0.4130 H       1  LIG1        0.1497
     40 H         -15.8252   -6.5143    0.3162 H       1  LIG1        0.2427
@<TRIPOS>BOND
     1     1     2   ar
     2     1     3   ar
     3     2     5   ar
     4     3     6   ar
     5     4     7   ar
     6     4    10   ar
     7     5    11   ar
     8     6    11   ar
     9     7    12   ar
    10     8    10   ar
    11     8    14   ar
    12     9    12   ar
    13     9    13   ar
    14    10    13   ar
    15    11    17    1
    16    12    18    1
    17    13    24   ar
    18    14    15    1
    19    14    24   ar
    20    15    19   am
    21    15    21    2
    22    16    17    1
    23    16    20   am
    24    16    22    2
    25    18    20    1
    26    19    23    1
    27     1    25    1
    28     2    26    1
    29     3    27    1
    30     4    28    1
    31     5    29    1
    32     6    30    1
    33     7    31    1
    34     8    32    1
    35     9    33    1
    36    17    34    1
    37    17    35    1
    38    18    36    1
    39    18    37    1
    40    19    38    1
    41    20    39    1
    42    23    40    1
