@<TRIPOS>MOLECULE
ChEBML300435
 48 50 0 0 0
SMALL
USER_CHARGES

@<TRIPOS>ATOM
      1 C         -10.4686   -5.0292    0.2472 C.ar    1  LIG1       -0.0387
      2 C         -11.7627   -5.4668    0.5432 C.ar    1  LIG1       -0.0416
      3 C         -12.0445   -3.7040    2.1895 C.ar    1  LIG1       -0.0343
      4 C          -9.9394   -2.1783    2.4007 C.ar    1  LIG1       -0.0262
      5 C         -10.7427   -3.2445    1.9080 C.ar    1  LIG1       -0.0007
      6 C          -9.9863   -3.9164    0.9453 C.ar    1  LIG1        0.0379
      7 C         -12.5403   -4.8160    1.4990 C.ar    1  LIG1        0.0413
      8 C          -8.7333   -2.2228    1.7401 C.ar    1  LIG1        0.0945
      9 C          -7.5607   -1.3248    1.9006 C.2     1  LIG1        0.2576
     10 C          -4.3515   -1.1287    0.4629 C.2     1  LIG1        0.2317
     11 C          -2.6927    1.9016   -3.6078 C.3     1  LIG1       -0.0271
     12 C          -1.7813    1.0564   -2.7537 C.3     1  LIG1       -0.0230
     13 C          -4.0526    1.3200   -3.2847 C.3     1  LIG1        0.0472
     14 C          -2.6201    0.8793   -1.4998 C.3     1  LIG1        0.0733
     15 C          -5.0875   -1.1604    1.7908 C.3     1  LIG1        0.0887
     16 C          -2.2887   -0.3548   -0.7319 C.3     1  LIG1        0.0406
     17 C          -2.5675    0.1532    1.6636 C.3     1  LIG1        0.0375
     18 C          -1.7208   -0.8553    2.4183 C.3     1  LIG1        0.0589
     19 N          -8.7712   -3.2743    0.8642 N.ar    1  LIG1       -0.3101
     20 N          -6.3142   -1.8921    1.6547 N.am    1  LIG1       -0.3013
     21 N          -3.1175   -0.4690    0.4656 N.am    1  LIG1       -0.2956
     22 O          -7.7393   -0.1618    2.2528 O.2     1  LIG1       -0.2704
     23 O          -4.8347   -1.6617   -0.5396 O.2     1  LIG1       -0.2756
     24 O          -3.9886    0.8291   -1.9373 O.3     1  LIG1       -0.3765
     25 O          -1.1578   -0.2340    3.5666 O.3     1  LIG1       -0.3947
     26 CL        -14.1317   -5.3844    1.8352 Cl      1  LIG1       -0.0843
     27 H          -9.8640   -5.5372   -0.4967 H       1  LIG1        0.0643
     28 H         -12.1541   -6.3310    0.0105 H       1  LIG1        0.0639
     29 H         -12.6498   -3.1957    2.9356 H       1  LIG1        0.0645
     30 H         -10.2182   -1.4574    3.1578 H       1  LIG1        0.0651
     31 H          -2.6450    2.9469   -3.2801 H       1  LIG1        0.0291
     32 H          -2.4555    1.8660   -4.6742 H       1  LIG1        0.0291
     33 H          -1.6020    0.0938   -3.2480 H       1  LIG1        0.0294
     34 H          -0.8135    1.5253   -2.5552 H       1  LIG1        0.0294
     35 H          -4.8556    2.0573   -3.3708 H       1  LIG1        0.0566
     36 H          -4.2854    0.4716   -3.9367 H       1  LIG1        0.0566
     37 H          -2.5203    1.7570   -0.8500 H       1  LIG1        0.0620
     38 H          -4.4830   -1.6663    2.5481 H       1  LIG1        0.0567
     39 H          -5.3424   -0.1463    2.1095 H       1  LIG1        0.0567
     40 H          -1.2420   -0.3387   -0.4133 H       1  LIG1        0.0496
     41 H          -2.4579   -1.2478   -1.3407 H       1  LIG1        0.0496
     42 H          -3.4003    0.5107    2.2776 H       1  LIG1        0.0493
     43 H          -1.9575    1.0076    1.3550 H       1  LIG1        0.0493
     44 H          -0.8986   -1.2029    1.7849 H       1  LIG1        0.0580
     45 H          -2.3133   -1.7182    2.7395 H       1  LIG1        0.0580
     46 H          -8.0179   -3.5434    0.2461 H       1  LIG1        0.1529
     47 H          -6.2493   -2.8837    1.4269 H       1  LIG1        0.1503
     48 H          -0.6269   -0.9098    4.0181 H       1  LIG1        0.2101
@<TRIPOS>BOND
     1     1     2   ar
     2     1     6   ar
     3     2     7   ar
     4     3     5   ar
     5     3     7   ar
     6     4     5   ar
     7     4     8   ar
     8     5     6   ar
     9     6    19   ar
    10     7    26    1
    11     8     9    1
    12     8    19   ar
    13     9    20   am
    14     9    22    2
    15    10    15    1
    16    10    21   am
    17    10    23    2
    18    11    12    1
    19    11    13    1
    20    12    14    1
    21    13    24    1
    22    14    16    1
    23    14    24    1
    24    15    20    1
    25    16    21    1
    26    17    18    1
    27    17    21    1
    28    18    25    1
    29     1    27    1
    30     2    28    1
    31     3    29    1
    32     4    30    1
    33    11    31    1
    34    11    32    1
    35    12    33    1
    36    12    34    1
    37    13    35    1
    38    13    36    1
    39    14    37    1
    40    15    38    1
    41    15    39    1
    42    16    40    1
    43    16    41    1
    44    17    42    1
    45    17    43    1
    46    18    44    1
    47    18    45    1
    48    19    46    1
    49    20    47    1
    50    25    48    1
