@<TRIPOS>MOLECULE
ChEBML52957
 63 66 0 0 0
SMALL
USER_CHARGES

@<TRIPOS>ATOM
      1 C          -2.2924    1.0137   -3.4400 C.ar    1  LIG1       -0.0418
      2 C         -10.3159   -5.1696    0.5062 C.ar    1  LIG1       -0.0383
      3 C          -1.7474   -0.1905   -3.0155 C.ar    1  LIG1       -0.0360
      4 C         -11.6305   -5.5320    0.6877 C.ar    1  LIG1       -0.0375
      5 C         -12.0549   -3.5160    1.9333 C.ar    1  LIG1       -0.0302
      6 C          -9.9677   -2.0064    2.1646 C.ar    1  LIG1       -0.0261
      7 C          -3.4532    1.4757   -2.8536 C.ar    1  LIG1        0.0292
      8 C         -10.7182   -3.1352    1.7550 C.ar    1  LIG1       -0.0003
      9 C          -9.8436   -3.9712    1.0346 C.ar    1  LIG1        0.0379
     10 C         -12.5022   -4.7080    1.4005 C.ar    1  LIG1        0.0466
     11 C          -2.3962   -0.8914   -2.0076 C.ar    1  LIG1        0.0672
     12 C          -8.6982   -2.1645    1.7065 C.ar    1  LIG1        0.0947
     13 C          -3.5705   -0.3641   -1.4645 C.ar    1  LIG1        0.1412
     14 C          -7.5937   -1.2157    1.9117 C.2     1  LIG1        0.2599
     15 C          -4.4639   -0.1000    0.6330 C.3     1  LIG1        0.0288
     16 C          -5.5508   -1.4259   -0.9963 C.3     1  LIG1        0.0288
     17 C          -5.1761   -0.8027    1.7933 C.3     1  LIG1        0.0303
     18 C          -6.3347   -2.2162    0.0563 C.3     1  LIG1        0.0303
     19 C           0.5597   -2.1232   -1.6240 C.3     1  LIG1       -0.0470
     20 C          -0.7393   -4.2277   -1.9789 C.3     1  LIG1       -0.0470
     21 C         -14.3831   -5.2429    2.9274 C.3     1  LIG1        0.0189
     22 C         -14.6753   -7.1738    0.0386 C.3     1  LIG1        0.0228
     23 C          -0.7251   -2.7149   -2.2072 C.3     1  LIG1        0.0142
     24 N          -4.0511    0.7899   -1.8965 N.ar    1  LIG1       -0.2394
     25 N          -8.6121   -3.3552    1.0123 N.ar    1  LIG1       -0.3101
     26 N          -4.2374   -1.0563   -0.4565 N.pl3   1  LIG1       -0.3112
     27 N          -6.4179   -1.4034    1.2803 N.am    1  LIG1       -0.2936
     28 N          -1.8847   -2.1105   -1.5467 N.pl3   1  LIG1       -0.3393
     29 N         -13.8363   -5.0924    1.5766 N.pl3   1  LIG1       -0.2532
     30 O          -7.7412   -0.2612    2.6513 O.2     1  LIG1       -0.2701
     31 O         -16.0851   -4.9919    0.7176 O.2     1  LIG1       -0.4812
     32 O         -14.1241   -4.6764   -0.7790 O.2     1  LIG1       -0.4812
     33 S         -14.7968   -5.3773    0.2580 S.O2    1  LIG1       -0.1935
     34 H          -1.8125    1.5838   -4.2217 H       1  LIG1        0.0639
     35 H          -9.6496   -5.8150   -0.0469 H       1  LIG1        0.0643
     36 H          -0.8396   -0.5730   -3.4586 H       1  LIG1        0.0644
     37 H         -11.9908   -6.4627    0.2750 H       1  LIG1        0.0643
     38 H         -12.7316   -2.8802    2.4849 H       1  LIG1        0.0650
     39 H         -10.3380   -1.1698    2.7384 H       1  LIG1        0.0651
     40 H          -3.8788    2.4124   -3.1820 H       1  LIG1        0.0840
     41 H          -3.5067    0.2909    0.9780 H       1  LIG1        0.0485
     42 H          -5.0823    0.7218    0.2720 H       1  LIG1        0.0485
     43 H          -6.1028   -0.5232   -1.2580 H       1  LIG1        0.0485
     44 H          -5.4174   -2.0404   -1.8868 H       1  LIG1        0.0485
     45 H          -4.5324   -1.5822    2.2009 H       1  LIG1        0.0486
     46 H          -5.4134   -0.0776    2.5716 H       1  LIG1        0.0486
     47 H          -5.8193   -3.1522    0.2715 H       1  LIG1        0.0486
     48 H          -7.3381   -2.4258   -0.3141 H       1  LIG1        0.0486
     49 H           0.5698   -1.0455   -1.7866 H       1  LIG1        0.0249
     50 H           0.6021   -2.3298   -0.5546 H       1  LIG1        0.0249
     51 H           1.4226   -2.5729   -2.1154 H       1  LIG1        0.0249
     52 H          -0.6969   -4.4342   -0.9095 H       1  LIG1        0.0249
     53 H          -1.6546   -4.6493   -2.3943 H       1  LIG1        0.0249
     54 H           0.1235   -4.6775   -2.4703 H       1  LIG1        0.0249
     55 H         -13.6090   -5.0152    3.6602 H       1  LIG1        0.0450
     56 H         -15.2206   -4.5577    3.0587 H       1  LIG1        0.0450
     57 H         -14.7266   -6.2678    3.0683 H       1  LIG1        0.0450
     58 H         -15.0386   -7.6749    0.9358 H       1  LIG1        0.0443
     59 H         -15.2792   -7.4771   -0.8167 H       1  LIG1        0.0443
     60 H         -13.6351   -7.4491   -0.1354 H       1  LIG1        0.0443
     61 H          -0.7675   -2.5084   -3.2765 H       1  LIG1        0.0497
     62 H          -7.8151   -3.7016    0.5814 H       1  LIG1        0.1529
     63 H          -2.2981   -2.5550   -0.7901 H       1  LIG1        0.1469
@<TRIPOS>BOND
     1     1     3   ar
     2     1     7   ar
     3     2     4   ar
     4     2     9   ar
     5     3    11   ar
     6     4    10   ar
     7     5     8   ar
     8     5    10   ar
     9     6     8   ar
    10     6    12   ar
    11     7    24   ar
    12     8     9   ar
    13     9    25   ar
    14    10    29    1
    15    11    13   ar
    16    11    28    1
    17    12    14    1
    18    12    25   ar
    19    13    24   ar
    20    13    26    1
    21    14    27   am
    22    14    30    2
    23    15    17    1
    24    15    26    1
    25    16    18    1
    26    16    26    1
    27    17    27    1
    28    18    27    1
    29    19    23    1
    30    20    23    1
    31    21    29    1
    32    22    33    1
    33    23    28    1
    34    29    33    1
    35    31    33    2
    36    32    33    2
    37     1    34    1
    38     2    35    1
    39     3    36    1
    40     4    37    1
    41     5    38    1
    42     6    39    1
    43     7    40    1
    44    15    41    1
    45    15    42    1
    46    16    43    1
    47    16    44    1
    48    17    45    1
    49    17    46    1
    50    18    47    1
    51    18    48    1
    52    19    49    1
    53    19    50    1
    54    19    51    1
    55    20    52    1
    56    20    53    1
    57    20    54    1
    58    21    55    1
    59    21    56    1
    60    21    57    1
    61    22    58    1
    62    22    59    1
    63    22    60    1
    64    23    61    1
    65    25    62    1
    66    28    63    1
