@<TRIPOS>MOLECULE
ChEBML757247
 39 41 0 0 0
SMALL
USER_CHARGES

@<TRIPOS>ATOM
      1 C          -2.5736    0.5791   -3.5295 C.ar    1  LIG1       -0.0359
      2 C         -10.7987   -2.8143    1.0461 C.ar    1  LIG1       -0.0377
      3 C         -12.1626   -3.0699    0.9055 C.ar    1  LIG1       -0.0229
      4 C          -2.1386   -0.0801   -2.3550 C.ar    1  LIG1       -0.0238
      5 C         -10.3576   -5.1894    1.0865 C.ar    1  LIG1       -0.0191
      6 C          -3.8105    1.1048   -3.2366 C.ar    1  LIG1        0.0462
      7 C          -9.8961   -3.8739    1.1365 C.ar    1  LIG1        0.0333
      8 C         -12.6241   -4.3852    0.8554 C.ar    1  LIG1        0.1414
      9 C         -11.7216   -5.4449    0.9459 C.ar    1  LIG1        0.0781
     10 C          -3.1405    0.0900   -1.4281 C.ar    1  LIG1        0.1439
     11 C          -3.2645   -0.3515   -0.0697 C.2     1  LIG1        0.2694
     12 C          -7.8449   -2.5823    1.8873 C.2     1  LIG1        0.1359
     13 C          -5.6439   -1.0418   -0.5092 C.3     1  LIG1        0.0304
     14 C          -4.9729   -0.4201    1.7839 C.3     1  LIG1        0.0304
     15 C          -6.2693   -2.3308    0.0163 C.3     1  LIG1        0.0290
     16 C          -5.5877   -1.7085    2.3220 C.3     1  LIG1        0.0290
     17 N          -4.5688   -0.5939    0.3798 N.am    1  LIG1       -0.2929
     18 N          -6.6310   -2.1952    1.4241 N.am    1  LIG1       -0.3099
     19 N          -8.5114   -3.6142    1.2797 N.am    1  LIG1       -0.2968
     20 O          -2.2660   -0.4982    0.6329 O.2     1  LIG1       -0.2693
     21 O          -4.1632    0.8113   -1.9575 O.2     1  LIG1       -0.3126
     22 F         -13.9381   -4.6148    0.7199 F       1  LIG1       -0.2053
     23 S          -8.4955   -1.8484    3.2485 S.2     1  LIG1       -0.0183
     24 CL        -12.2860   -7.0703    0.8824 Cl      1  LIG1       -0.0810
     25 H          -2.0515    0.6602   -4.4718 H       1  LIG1        0.0645
     26 H         -10.4508   -1.7850    1.0830 H       1  LIG1        0.0643
     27 H         -12.8649   -2.2446    0.8343 H       1  LIG1        0.0654
     28 H          -1.2095   -0.6121   -2.2070 H       1  LIG1        0.0653
     29 H          -9.6503   -6.0130    1.1571 H       1  LIG1        0.0659
     30 H          -4.5301    1.6816   -3.7991 H       1  LIG1        0.0901
     31 H          -5.2767   -1.1914   -1.5291 H       1  LIG1        0.0486
     32 H          -6.3905   -0.2392   -0.5383 H       1  LIG1        0.0486
     33 H          -5.7109    0.3909    1.8030 H       1  LIG1        0.0486
     34 H          -4.1356   -0.1181    2.4173 H       1  LIG1        0.0486
     35 H          -7.1493   -2.6018   -0.5767 H       1  LIG1        0.0485
     36 H          -5.5514   -3.1569   -0.0503 H       1  LIG1        0.0485
     37 H          -4.8278   -2.4964    2.3865 H       1  LIG1        0.0485
     38 H          -5.9956   -1.5510    3.3261 H       1  LIG1        0.0485
     39 H          -7.9069   -4.3255    0.8741 H       1  LIG1        0.1546
@<TRIPOS>BOND
     1     1     4   ar
     2     1     6   ar
     3     2     3   ar
     4     2     7   ar
     5     3     8   ar
     6     4    10   ar
     7     5     7   ar
     8     5     9   ar
     9     6    21   ar
    10     7    19    1
    11     8     9   ar
    12     8    22    1
    13     9    24    1
    14    10    11    1
    15    10    21   ar
    16    11    17   am
    17    11    20    2
    18    12    18    1
    19    12    19    1
    20    12    23    2
    21    13    15    1
    22    13    17    1
    23    14    16    1
    24    14    17    1
    25    15    18    1
    26    16    18    1
    27     1    25    1
    28     2    26    1
    29     3    27    1
    30     4    28    1
    31     5    29    1
    32     6    30    1
    33    13    31    1
    34    13    32    1
    35    14    33    1
    36    14    34    1
    37    15    35    1
    38    15    36    1
    39    16    37    1
    40    16    38    1
    41    19    39    1
