@<TRIPOS>MOLECULE
ChEBML204868
 69 72 0 0 0
SMALL
USER_CHARGES

@<TRIPOS>ATOM
      1 C         -10.6546   -4.2751   -0.3175 C.ar    1  LIG1       -0.0383
      2 C         -12.0519   -4.2837   -0.3537 C.ar    1  LIG1       -0.0377
      3 C          -1.3696    0.0636   -2.8367 C.ar    1  LIG1       -0.0330
      4 C          -1.9228    1.0272   -3.6727 C.ar    1  LIG1       -0.0049
      5 C         -12.1723   -3.1578    1.7945 C.ar    1  LIG1       -0.0304
      6 C          -9.8187   -2.6500    2.7979 C.ar    1  LIG1       -0.0261
      7 C         -10.7646   -3.1376    1.8532 C.ar    1  LIG1       -0.0003
      8 C         -10.0397   -3.6955    0.7980 C.ar    1  LIG1        0.0379
      9 C         -12.8011   -3.7342    0.6849 C.ar    1  LIG1        0.0437
     10 C          -2.2029   -0.7765   -2.1067 C.ar    1  LIG1        0.0676
     11 C          -8.5613   -2.9166    2.3072 C.ar    1  LIG1        0.0947
     12 C          -3.5717   -0.6138   -2.2465 C.ar    1  LIG1        0.1445
     13 C          -3.3042    1.1091   -3.7426 C.ar    1  LIG1        0.2143
     14 C          -7.2919   -2.6151    2.9015 C.2     1  LIG1        0.2598
     15 C          -4.3887   -2.1210    0.8467 C.3     1  LIG1       -0.0185
     16 C          -6.3996   -0.9669   -0.1678 C.3     1  LIG1       -0.0185
     17 C          -4.9824   -1.8614    2.2307 C.3     1  LIG1        0.0162
     18 C          -6.9527   -0.7551    1.2424 C.3     1  LIG1        0.0162
     19 C          -4.8707   -1.0956   -0.1872 C.3     1  LIG1        0.0268
     20 C          -0.9553   -4.0330   -0.8421 C.3     1  LIG1       -0.0444
     21 C          -1.1648   -3.1406   -3.1763 C.3     1  LIG1       -0.0444
     22 C           0.6695   -2.3189   -1.6767 C.3     1  LIG1       -0.0444
     23 C          -4.8535   -2.7324   -2.0764 C.3     1  LIG1        0.0018
     24 C         -14.9633   -5.4524    2.5678 C.3     1  LIG1        0.0225
     25 C          -0.7863   -2.7962   -1.7320 C.3     1  LIG1        0.0228
     26 N          -4.1459    0.3106   -3.0486 N.ar    1  LIG1       -0.2026
     27 N          -8.7050   -3.5472    1.1005 N.ar    1  LIG1       -0.3101
     28 N          -6.4476   -1.7802    2.1572 N.am    1  LIG1       -0.2966
     29 N          -1.6448   -1.7524   -1.2594 N.pl3   1  LIG1       -0.3369
     30 N         -14.2279   -3.7585    0.6179 N.pl3   1  LIG1       -0.2633
     31 N          -4.4173   -1.4554   -1.5157 N.pl3   1  LIG1       -0.3141
     32 O          -6.9925   -3.0774    4.0011 O.2     1  LIG1       -0.2702
     33 O         -16.4204   -5.1035    0.4411 O.2     1  LIG1       -0.4814
     34 O         -14.2402   -6.3451    0.2166 O.2     1  LIG1       -0.4814
     35 F          -3.8511    2.0351   -4.5453 F       1  LIG1       -0.1848
     36 S         -15.0245   -5.2742    0.7989 S.O2    1  LIG1       -0.1957
     37 H         -10.0723   -4.7031   -1.1265 H       1  LIG1        0.0643
     38 H         -12.5511   -4.7294   -1.2116 H       1  LIG1        0.0643
     39 H          -0.2886   -0.0222   -2.7616 H       1  LIG1        0.0645
     40 H          -1.2915    1.6913   -4.2517 H       1  LIG1        0.0671
     41 H         -12.7592   -2.7301    2.6032 H       1  LIG1        0.0650
     42 H         -10.0392   -2.1572    3.7356 H       1  LIG1        0.0651
     43 H          -3.2942   -2.1170    0.9103 H       1  LIG1        0.0302
     44 H          -4.6907   -3.1227    0.5149 H       1  LIG1        0.0302
     45 H          -6.8305   -1.8903   -0.5764 H       1  LIG1        0.0302
     46 H          -6.7260   -0.1455   -0.8165 H       1  LIG1        0.0302
     47 H          -4.6570   -2.6504    2.9136 H       1  LIG1        0.0470
     48 H          -4.6220   -0.9134    2.6457 H       1  LIG1        0.0470
     49 H          -6.6464    0.2197    1.6390 H       1  LIG1        0.0470
     50 H          -8.0468   -0.7645    1.2131 H       1  LIG1        0.0470
     51 H          -4.4326   -0.1207    0.0561 H       1  LIG1        0.0506
     52 H          -0.6902   -3.8118    0.1983 H       1  LIG1        0.0252
     53 H          -1.9890   -4.3960   -0.8559 H       1  LIG1        0.0252
     54 H          -0.3057   -4.8509   -1.1751 H       1  LIG1        0.0252
     55 H          -1.0518   -2.2700   -3.8329 H       1  LIG1        0.0252
     56 H          -2.2100   -3.4640   -3.2446 H       1  LIG1        0.0252
     57 H          -0.5360   -3.9456   -3.5725 H       1  LIG1        0.0252
     58 H           0.8191   -1.4334   -2.3055 H       1  LIG1        0.0252
     59 H           0.9661   -2.0608   -0.6541 H       1  LIG1        0.0252
     60 H           1.3544   -3.0938   -2.0403 H       1  LIG1        0.0252
     61 H          -5.5052   -3.2507   -1.3682 H       1  LIG1        0.0432
     62 H          -3.9889   -3.3672   -2.2884 H       1  LIG1        0.0432
     63 H          -5.4043   -2.5683   -3.0065 H       1  LIG1        0.0432
     64 H         -15.4446   -6.3943    2.8359 H       1  LIG1        0.0442
     65 H         -13.9172   -5.4556    2.8775 H       1  LIG1        0.0442
     66 H         -15.4928   -4.6108    3.0170 H       1  LIG1        0.0442
     67 H          -7.9435   -3.8603    0.5139 H       1  LIG1        0.1529
     68 H          -1.8735   -1.6954   -0.2837 H       1  LIG1        0.1471
     69 H         -14.6878   -2.9699    1.1015 H       1  LIG1        0.1702
@<TRIPOS>BOND
     1     1     2   ar
     2     1     8   ar
     3     2     9   ar
     4     3     4   ar
     5     3    10   ar
     6     4    13   ar
     7     5     7   ar
     8     5     9   ar
     9     6     7   ar
    10     6    11   ar
    11     7     8   ar
    12     8    27   ar
    13     9    30    1
    14    10    12   ar
    15    10    29    1
    16    11    14    1
    17    11    27   ar
    18    12    26   ar
    19    12    31    1
    20    13    26   ar
    21    13    35    1
    22    14    28   am
    23    14    32    2
    24    15    17    1
    25    15    19    1
    26    16    18    1
    27    16    19    1
    28    17    28    1
    29    18    28    1
    30    19    31    1
    31    20    25    1
    32    21    25    1
    33    22    25    1
    34    23    31    1
    35    24    36    1
    36    25    29    1
    37    30    36    1
    38    33    36    2
    39    34    36    2
    40     1    37    1
    41     2    38    1
    42     3    39    1
    43     4    40    1
    44     5    41    1
    45     6    42    1
    46    15    43    1
    47    15    44    1
    48    16    45    1
    49    16    46    1
    50    17    47    1
    51    17    48    1
    52    18    49    1
    53    18    50    1
    54    19    51    1
    55    20    52    1
    56    20    53    1
    57    20    54    1
    58    21    55    1
    59    21    56    1
    60    21    57    1
    61    22    58    1
    62    22    59    1
    63    22    60    1
    64    23    61    1
    65    23    62    1
    66    23    63    1
    67    24    64    1
    68    24    65    1
    69    24    66    1
    70    27    67    1
    71    29    68    1
    72    30    69    1
