@<TRIPOS>MOLECULE
ChEBML4432
 39 41 0 0 0
SMALL
USER_CHARGES

@<TRIPOS>ATOM
      1 C         -12.5567   -4.7174    1.2885 C.ar    1  LIG1       -0.0615
      2 C         -11.6492   -5.5608    0.6509 C.ar    1  LIG1       -0.0603
      3 C         -12.1367   -3.5053    1.8484 C.ar    1  LIG1       -0.0530
      4 C         -10.2967   -5.2218    0.5522 C.ar    1  LIG1       -0.0402
      5 C         -10.0212   -2.0213    2.2033 C.ar    1  LIG1       -0.0262
      6 C          -3.6690   -0.0397   -3.6512 C.ar    1  LIG1        0.0424
      7 C          -4.1926    0.7600   -2.6629 C.ar    1  LIG1        0.0150
      8 C          -2.1483    0.1020   -2.1687 C.ar    1  LIG1        0.0865
      9 C         -10.7781   -3.1423    1.7614 C.ar    1  LIG1       -0.0022
     10 C          -9.8911   -4.0071    1.1166 C.ar    1  LIG1        0.0378
     11 C          -8.7137   -2.2236    1.8255 C.ar    1  LIG1        0.0944
     12 C          -7.5855   -1.3752    2.0465 C.2     1  LIG1        0.2572
     13 C          -3.5228    0.6640    0.7321 C.3     1  LIG1       -0.0355
     14 C          -4.8411   -0.0983    0.5749 C.3     1  LIG1       -0.0361
     15 C          -3.2718    1.5817   -0.4640 C.3     1  LIG1        0.0170
     16 C          -5.0970   -1.0693    1.7227 C.3     1  LIG1        0.0114
     17 N          -2.3963   -0.4463   -3.3374 N.ar    1  LIG1       -0.2477
     18 N          -8.6453   -3.4239    1.1704 N.ar    1  LIG1       -0.3101
     19 N          -3.2072    0.8413   -1.7198 N.ar    1  LIG1       -0.2967
     20 N          -6.3315   -1.8028    1.5593 N.am    1  LIG1       -0.3103
     21 O          -7.6921   -0.2903    2.6721 O.2     1  LIG1       -0.2704
     22 H         -13.6037   -5.0024    1.3519 H       1  LIG1        0.0623
     23 H         -11.9972   -6.4974    0.2233 H       1  LIG1        0.0623
     24 H         -12.8550   -2.8570    2.3424 H       1  LIG1        0.0629
     25 H          -9.5902   -5.8789    0.0561 H       1  LIG1        0.0642
     26 H         -10.3974   -1.1605    2.7401 H       1  LIG1        0.0651
     27 H          -4.1438   -0.3434   -4.5727 H       1  LIG1        0.0854
     28 H          -5.1453    1.2591   -2.5537 H       1  LIG1        0.0808
     29 H          -1.2307    0.0001   -1.6053 H       1  LIG1        0.1016
     30 H          -2.6949   -0.0487    0.8334 H       1  LIG1        0.0283
     31 H          -3.5400    1.2586    1.6536 H       1  LIG1        0.0283
     32 H          -5.6710    0.6151    0.5008 H       1  LIG1        0.0283
     33 H          -4.8174   -0.6659   -0.3632 H       1  LIG1        0.0283
     34 H          -2.3272    2.1268   -0.3498 H       1  LIG1        0.0473
     35 H          -4.0675    2.3301   -0.5598 H       1  LIG1        0.0473
     36 H          -4.2911   -1.8085    1.7738 H       1  LIG1        0.0467
     37 H          -5.1413   -0.5468    2.6835 H       1  LIG1        0.0467
     38 H          -7.8036   -3.8271    0.7823 H       1  LIG1        0.1529
     39 H          -6.2723   -2.7131    1.1150 H       1  LIG1        0.1497
@<TRIPOS>BOND
     1     1     2   ar
     2     1     3   ar
     3     2     4   ar
     4     3     9   ar
     5     4    10   ar
     6     5     9   ar
     7     5    11   ar
     8     6     7   ar
     9     6    17   ar
    10     7    19   ar
    11     8    17   ar
    12     8    19   ar
    13     9    10   ar
    14    10    18   ar
    15    11    12    1
    16    11    18   ar
    17    12    20   am
    18    12    21    2
    19    13    14    1
    20    13    15    1
    21    14    16    1
    22    15    19    1
    23    16    20    1
    24     1    22    1
    25     2    23    1
    26     3    24    1
    27     4    25    1
    28     5    26    1
    29     6    27    1
    30     7    28    1
    31     8    29    1
    32    13    30    1
    33    13    31    1
    34    14    32    1
    35    14    33    1
    36    15    34    1
    37    15    35    1
    38    16    36    1
    39    16    37    1
    40    18    38    1
    41    20    39    1
