@<TRIPOS>MOLECULE
ChEBML1142287
 33 35 0 0 0
SMALL
USER_CHARGES

@<TRIPOS>ATOM
      1 C         -11.2848   -5.3351    0.7460 C.ar    1  LIG1       -0.0544
      2 C         -10.0542   -4.6305    0.8854 C.ar    1  LIG1       -0.0455
      3 C          -1.9003   -0.1335   -3.0221 C.ar    1  LIG1       -0.0405
      4 C         -12.3432   -4.6402    1.2884 C.ar    1  LIG1       -0.0241
      5 C          -2.7941    0.9112   -3.1080 C.ar    1  LIG1       -0.0220
      6 C          -9.3341   -1.2778    2.4638 C.ar    1  LIG1        0.0040
      7 C          -2.2257   -1.0307   -1.9640 C.ar    1  LIG1        0.0656
      8 C          -9.1254   -2.4774    1.8162 C.ar    1  LIG1        0.0845
      9 C         -10.2190   -3.4236    1.5289 C.ar    1  LIG1        0.0379
     10 C          -3.3558   -0.6373   -1.2813 C.ar    1  LIG1        0.0835
     11 C          -7.0591   -1.7423    1.8227 C.ar    1  LIG1        0.0873
     12 C          -1.4784   -2.2153   -1.6272 C.2     1  LIG1        0.2428
     13 C          -5.1792   -0.7456    0.4531 C.2     1  LIG1        0.2230
     14 C          -5.5720   -1.6703    1.5945 C.3     1  LIG1        0.0737
     15 N          -7.8214   -2.7453    1.4475 N.ar    1  LIG1       -0.2439
     16 N          -0.3453   -2.5209   -2.3875 N.am    1  LIG1       -0.3250
     17 N          -4.0092   -1.1963   -0.2168 N.am    1  LIG1       -0.2788
     18 O          -1.8246   -2.9738   -0.6949 O.2     1  LIG1       -0.2720
     19 O          -5.8213    0.2623    0.1754 O.2     1  LIG1       -0.2768
     20 S         -11.8521   -3.1445    1.9621 S.2     1  LIG1       -0.0958
     21 S          -4.0194    0.8079   -1.9163 S.2     1  LIG1       -0.0816
     22 S          -7.8440   -0.4440    2.6247 S.2     1  LIG1       -0.0797
     23 H         -11.3881   -6.3022    0.2713 H       1  LIG1        0.0628
     24 H          -9.0998   -4.9980    0.5284 H       1  LIG1        0.0635
     25 H          -1.0546   -0.2437   -3.6895 H       1  LIG1        0.0637
     26 H         -13.3815   -4.9386    1.3209 H       1  LIG1        0.0700
     27 H          -2.7861    1.7301   -3.8134 H       1  LIG1        0.0701
     28 H         -10.2562   -0.8579    2.8414 H       1  LIG1        0.0724
     29 H          -5.0748   -1.3279    2.5111 H       1  LIG1        0.0437
     30 H          -5.1839   -2.6750    1.3843 H       1  LIG1        0.0437
     31 H          -0.0829   -1.9048   -3.1492 H       1  LIG1        0.1458
     32 H           0.2224   -3.3409   -2.1998 H       1  LIG1        0.1458
     33 H          -3.5918   -2.0724    0.1537 H       1  LIG1        0.1562
@<TRIPOS>BOND
     1     1     2   ar
     2     1     4   ar
     3     2     9   ar
     4     3     5   ar
     5     3     7   ar
     6     4    20   ar
     7     5    21   ar
     8     6     8   ar
     9     6    22   ar
    10     7    10   ar
    11     7    12    1
    12     8     9    1
    13     8    15   ar
    14     9    20   ar
    15    10    17    1
    16    10    21   ar
    17    11    14    1
    18    11    15   ar
    19    11    22   ar
    20    12    16   am
    21    12    18    2
    22    13    14    1
    23    13    17   am
    24    13    19    2
    25     1    23    1
    26     2    24    1
    27     3    25    1
    28     4    26    1
    29     5    27    1
    30     6    28    1
    31    14    29    1
    32    14    30    1
    33    16    31    1
    34    16    32    1
    35    17    33    1
