@<TRIPOS>MOLECULE
ChEBML218710
 61 64 0 0 0
SMALL
USER_CHARGES

@<TRIPOS>ATOM
      1 C          -0.3159   -1.8261   -3.5945 C.ar    1  LIG1       -0.0428
      2 C          -0.4302   -0.5309   -3.1020 C.ar    1  LIG1       -0.0438
      3 C         -10.0385   -5.4484    1.9787 C.ar    1  LIG1       -0.0383
      4 C         -11.3726   -5.8655    1.9703 C.ar    1  LIG1       -0.0377
      5 C         -12.1497   -3.5702    1.8133 C.ar    1  LIG1       -0.0304
      6 C         -10.1925   -1.8466    1.7591 C.ar    1  LIG1       -0.0261
      7 C          -1.4218   -2.6555   -3.5007 C.ar    1  LIG1        0.0291
      8 C         -10.8125   -3.1260    1.8202 C.ar    1  LIG1       -0.0003
      9 C          -1.6300   -0.1105   -2.5389 C.ar    1  LIG1        0.0872
     10 C          -9.7899   -4.0735    1.9025 C.ar    1  LIG1        0.0379
     11 C         -12.4135   -4.9426    1.8889 C.ar    1  LIG1        0.0437
     12 C          -8.8309   -2.0385    1.8050 C.ar    1  LIG1        0.0947
     13 C          -2.6772   -1.0166   -2.4927 C.ar    1  LIG1        0.1333
     14 C          -1.7381    1.2465   -2.0213 C.2     1  LIG1        0.2960
     15 C          -7.7916   -1.0514    1.7721 C.2     1  LIG1        0.2598
     16 C          -5.8128   -1.8844   -1.1062 C.3     1  LIG1       -0.0185
     17 C          -4.5485   -0.3017    0.4107 C.3     1  LIG1       -0.0185
     18 C          -6.5018   -2.4620    0.1294 C.3     1  LIG1        0.0162
     19 C          -5.2858   -0.9059    1.6068 C.3     1  LIG1        0.0162
     20 C          -4.4455   -1.2757   -0.7704 C.3     1  LIG1        0.0267
     21 C          -4.6257    0.5208   -2.4992 C.3     1  LIG1        0.0018
     22 C          -1.5893    3.5515   -2.6121 C.3     1  LIG1        0.0456
     23 C         -14.0303   -6.6829   -0.4627 C.3     1  LIG1        0.0225
     24 N          -2.6038   -2.2829   -2.9606 N.ar    1  LIG1       -0.2405
     25 N          -8.5978   -3.3849    1.8912 N.ar    1  LIG1       -0.3101
     26 N          -6.5793   -1.4543    1.1958 N.am    1  LIG1       -0.2966
     27 N         -13.7666   -5.4009    1.8823 N.pl3   1  LIG1       -0.2633
     28 N          -3.8869   -0.6019   -1.9253 N.pl3   1  LIG1       -0.3151
     29 O          -2.0002    1.5263   -0.8452 O.2     1  LIG1       -0.2605
     30 O          -7.9851    0.0734    2.2304 O.2     1  LIG1       -0.2702
     31 O         -16.0566   -5.5455    0.7068 O.2     1  LIG1       -0.4814
     32 O         -14.2816   -4.0822   -0.3194 O.2     1  LIG1       -0.4814
     33 O          -1.5121    2.1753   -2.9991 O.3     1  LIG1       -0.3154
     34 S         -14.6615   -5.2715    0.4170 S.O2    1  LIG1       -0.1957
     35 H           0.6103   -2.1757   -4.0359 H       1  LIG1        0.0639
     36 H           0.4218    0.1411   -3.1622 H       1  LIG1        0.0633
     37 H          -9.2289   -6.1677    2.0420 H       1  LIG1        0.0643
     38 H         -11.5892   -6.9301    2.0288 H       1  LIG1        0.0643
     39 H         -12.9636   -2.8527    1.7499 H       1  LIG1        0.0650
     40 H         -10.6934   -0.8901    1.6892 H       1  LIG1        0.0651
     41 H          -1.3840   -3.6750   -3.8702 H       1  LIG1        0.0840
     42 H          -5.7085   -2.6666   -1.8674 H       1  LIG1        0.0302
     43 H          -6.4512   -1.1000   -1.5325 H       1  LIG1        0.0302
     44 H          -5.0954    0.5902    0.0781 H       1  LIG1        0.0302
     45 H          -3.5520    0.0309    0.7246 H       1  LIG1        0.0302
     46 H          -7.4928   -2.8277   -0.1513 H       1  LIG1        0.0470
     47 H          -5.9479   -3.3194    0.5283 H       1  LIG1        0.0470
     48 H          -4.7067   -1.7248    2.0488 H       1  LIG1        0.0470
     49 H          -5.4146   -0.1439    2.3820 H       1  LIG1        0.0470
     50 H          -3.7587   -2.0859   -0.4994 H       1  LIG1        0.0506
     51 H          -5.5403    0.6999   -1.9280 H       1  LIG1        0.0432
     52 H          -4.8953    0.3050   -3.5366 H       1  LIG1        0.0432
     53 H          -4.0138    1.4266   -2.4772 H       1  LIG1        0.0432
     54 H          -1.3903    4.1863   -3.4791 H       1  LIG1        0.0536
     55 H          -0.8577    3.7512   -1.8251 H       1  LIG1        0.0536
     56 H          -2.5935    3.7588   -2.2345 H       1  LIG1        0.0536
     57 H         -14.5208   -6.7296   -1.4362 H       1  LIG1        0.0442
     58 H         -12.9529   -6.5602   -0.5828 H       1  LIG1        0.0442
     59 H         -14.2508   -7.5786    0.1201 H       1  LIG1        0.0442
     60 H          -7.6842   -3.8147    1.9401 H       1  LIG1        0.1529
     61 H         -13.9184   -6.2800    2.4033 H       1  LIG1        0.1702
@<TRIPOS>BOND
     1     1     2   ar
     2     1     7   ar
     3     2     9   ar
     4     3     4   ar
     5     3    10   ar
     6     4    11   ar
     7     5     8   ar
     8     5    11   ar
     9     6     8   ar
    10     6    12   ar
    11     7    24   ar
    12     8    10   ar
    13     9    13   ar
    14     9    14    1
    15    10    25   ar
    16    11    27    1
    17    12    15    1
    18    12    25   ar
    19    13    24   ar
    20    13    28    1
    21    14    29    2
    22    14    33    1
    23    15    26   am
    24    15    30    2
    25    16    18    1
    26    16    20    1
    27    17    19    1
    28    17    20    1
    29    18    26    1
    30    19    26    1
    31    20    28    1
    32    21    28    1
    33    22    33    1
    34    23    34    1
    35    27    34    1
    36    31    34    2
    37    32    34    2
    38     1    35    1
    39     2    36    1
    40     3    37    1
    41     4    38    1
    42     5    39    1
    43     6    40    1
    44     7    41    1
    45    16    42    1
    46    16    43    1
    47    17    44    1
    48    17    45    1
    49    18    46    1
    50    18    47    1
    51    19    48    1
    52    19    49    1
    53    20    50    1
    54    21    51    1
    55    21    52    1
    56    21    53    1
    57    22    54    1
    58    22    55    1
    59    22    56    1
    60    23    57    1
    61    23    58    1
    62    23    59    1
    63    25    60    1
    64    27    61    1
