@<TRIPOS>MOLECULE
ChEBML1037097
 36 39 0 0 0
SMALL
USER_CHARGES

@<TRIPOS>ATOM
      1 C         -12.6003   -5.4294    0.8907 C.ar    1  LIG1       -0.0599
      2 C         -11.3796   -5.9188    0.4502 C.ar    1  LIG1       -0.0599
      3 C          -6.3854   -0.2163    3.6364 C.ar    1  LIG1       -0.0590
      4 C          -2.3145    0.0023   -3.1984 C.ar    1  LIG1       -0.0359
      5 C          -7.5752   -0.9271    3.4791 C.ar    1  LIG1       -0.0526
      6 C         -12.6571   -4.1847    1.5150 C.ar    1  LIG1       -0.0342
      7 C         -10.2262   -5.1594    0.6384 C.ar    1  LIG1       -0.0342
      8 C          -5.6390    0.1508    2.5167 C.ar    1  LIG1       -0.0311
      9 C          -2.6396   -0.9086   -2.1650 C.ar    1  LIG1       -0.0230
     10 C          -7.2719   -0.9041    1.0823 C.ar    1  LIG1       -0.0216
     11 C         -10.4524   -1.5213    2.4733 C.ar    1  LIG1        0.0539
     12 C          -3.1472    1.0841   -3.0300 C.ar    1  LIG1        0.0463
     13 C          -8.0184   -1.2711    2.2021 C.ar    1  LIG1        0.0043
     14 C         -11.5103   -3.4178    1.7078 C.ar    1  LIG1        0.0887
     15 C         -10.2720   -3.9143    1.2612 C.ar    1  LIG1        0.0894
     16 C          -6.0822   -0.1932    1.2396 C.ar    1  LIG1        0.0864
     17 C          -9.2470   -2.0047    2.0387 C.ar    1  LIG1        0.0894
     18 C          -3.6476   -0.3184   -1.4387 C.ar    1  LIG1        0.1540
     19 C          -4.4004   -0.7783   -0.2438 C.2     1  LIG1        0.3217
     20 N         -11.5908   -2.2198    2.3130 N.ar    1  LIG1       -0.2523
     21 N          -9.1453   -3.2005    1.4311 N.ar    1  LIG1       -0.2445
     22 O          -4.1975   -1.8526    0.3019 O.2     1  LIG1       -0.2578
     23 O          -3.9628    0.8965   -1.9594 O.2     1  LIG1       -0.3117
     24 O          -5.3537    0.1651    0.1472 O.3     1  LIG1       -0.2727
     25 H         -13.5063   -6.0108    0.7496 H       1  LIG1        0.0623
     26 H         -11.3216   -6.8870   -0.0372 H       1  LIG1        0.0623
     27 H          -6.0402    0.0512    4.6309 H       1  LIG1        0.0624
     28 H          -1.5673   -0.1152   -3.9699 H       1  LIG1        0.0645
     29 H          -8.1459   -1.2061    4.3618 H       1  LIG1        0.0630
     30 H         -13.6215   -3.8128    1.8548 H       1  LIG1        0.0646
     31 H          -9.2751   -5.5551    0.2875 H       1  LIG1        0.0646
     32 H          -4.7129    0.7046    2.6451 H       1  LIG1        0.0650
     33 H          -2.1923   -1.8742   -1.9768 H       1  LIG1        0.0653
     34 H          -7.6095   -1.1688    0.0822 H       1  LIG1        0.0657
     35 H         -10.5585   -0.5619    2.9659 H       1  LIG1        0.0863
     36 H          -3.2777    2.0166   -3.5592 H       1  LIG1        0.0901
@<TRIPOS>BOND
     1     1     2   ar
     2     1     6   ar
     3     2     7   ar
     4     3     5   ar
     5     3     8   ar
     6     4     9   ar
     7     4    12   ar
     8     5    13   ar
     9     6    14   ar
    10     7    15   ar
    11     8    16   ar
    12     9    18   ar
    13    10    13   ar
    14    10    16   ar
    15    11    17   ar
    16    11    20   ar
    17    12    23   ar
    18    13    17    1
    19    14    15   ar
    20    14    20   ar
    21    15    21   ar
    22    16    24    1
    23    17    21   ar
    24    18    19    1
    25    18    23   ar
    26    19    22    2
    27    19    24    1
    28     1    25    1
    29     2    26    1
    30     3    27    1
    31     4    28    1
    32     5    29    1
    33     6    30    1
    34     7    31    1
    35     8    32    1
    36     9    33    1
    37    10    34    1
    38    11    35    1
    39    12    36    1
