@<TRIPOS>MOLECULE
ChEBML411639
 37 39 0 0 0
SMALL
USER_CHARGES

@<TRIPOS>ATOM
      1 C          -4.3628   -0.5155   -2.0319 C.ar    1  LIG1       -0.0622
      2 C          -4.5134   -1.7773   -1.4567 C.ar    1  LIG1       -0.0620
      3 C          -4.5048    0.6297   -1.2482 C.ar    1  LIG1       -0.0620
      4 C         -10.9841   -1.9106    2.6103 C.ar    1  LIG1       -0.0519
      5 C          -4.8061   -1.8938   -0.0979 C.ar    1  LIG1       -0.0585
      6 C          -4.7974    0.5131    0.1106 C.ar    1  LIG1       -0.0585
      7 C          -9.6303   -1.5661    2.5731 C.ar    1  LIG1       -0.0400
      8 C         -12.7779   -3.5881    1.7878 C.ar    1  LIG1       -0.0344
      9 C          -9.1669   -3.4507    1.1299 C.ar    1  LIG1       -0.0261
     10 C         -11.4554   -3.0417    1.9011 C.ar    1  LIG1       -0.0102
     11 C          -4.9480   -0.7487    0.6857 C.ar    1  LIG1       -0.0389
     12 C          -8.7331   -2.3296    1.8399 C.ar    1  LIG1        0.0336
     13 C         -10.5322   -3.7953    1.1697 C.ar    1  LIG1        0.0215
     14 C         -12.8269   -4.7108    0.9961 C.ar    1  LIG1        0.0775
     15 C         -13.9551   -5.5160    0.6571 C.2     1  LIG1        0.2724
     16 C          -6.7554   -0.8942    2.4509 C.2     1  LIG1        0.2204
     17 C          -5.2644   -0.8739    2.1531 C.3     1  LIG1        0.0498
     18 N          -7.3834   -1.9749    1.8105 N.am    1  LIG1       -0.2851
     19 N         -15.2044   -5.1546    1.1766 N.am    1  LIG1       -0.1935
     20 O         -13.8515   -6.5195   -0.0960 O.2     1  LIG1       -0.2690
     21 O          -7.2932   -0.0521    3.1628 O.2     1  LIG1       -0.2769
     22 O         -16.3107   -5.9430    0.8282 O.3     1  LIG1       -0.2964
     23 S         -11.2931   -5.1255    0.3791 S.2     1  LIG1       -0.0837
     24 H          -4.1336   -0.4249   -3.0896 H       1  LIG1        0.0622
     25 H          -4.4019   -2.6691   -2.0665 H       1  LIG1        0.0623
     26 H          -4.3865    1.6122   -1.6955 H       1  LIG1        0.0623
     27 H         -11.6752   -1.3027    3.1892 H       1  LIG1        0.0630
     28 H          -4.9219   -2.8811    0.3416 H       1  LIG1        0.0625
     29 H          -4.9064    1.4109    0.7133 H       1  LIG1        0.0625
     30 H          -9.2923   -0.6928    3.1259 H       1  LIG1        0.0642
     31 H         -13.6502   -3.1654    2.2721 H       1  LIG1        0.0643
     32 H          -8.4647   -4.0497    0.5552 H       1  LIG1        0.0654
     33 H          -4.8142   -1.7928    2.5499 H       1  LIG1        0.0414
     34 H          -4.8065   -0.0396    2.6997 H       1  LIG1        0.0414
     35 H          -6.7728   -2.5804    1.2502 H       1  LIG1        0.1556
     36 H         -15.3057   -4.3504    1.7840 H       1  LIG1        0.1839
     37 H         -15.8788   -6.6024    0.2588 H       1  LIG1        0.2427
@<TRIPOS>BOND
     1     1     2   ar
     2     1     3   ar
     3     2     5   ar
     4     3     6   ar
     5     4     7   ar
     6     4    10   ar
     7     5    11   ar
     8     6    11   ar
     9     7    12   ar
    10     8    10   ar
    11     8    14   ar
    12     9    12   ar
    13     9    13   ar
    14    10    13   ar
    15    11    17    1
    16    12    18    1
    17    13    23   ar
    18    14    15    1
    19    14    23   ar
    20    15    19   am
    21    15    20    2
    22    16    17    1
    23    16    18   am
    24    16    21    2
    25    19    22    1
    26     1    24    1
    27     2    25    1
    28     3    26    1
    29     4    27    1
    30     5    28    1
    31     6    29    1
    32     7    30    1
    33     8    31    1
    34     9    32    1
    35    17    33    1
    36    17    34    1
    37    18    35    1
    38    19    36    1
    39    22    37    1
