@<TRIPOS>MOLECULE
ChEBML350633
 58 61 0 0 0
SMALL
USER_CHARGES

@<TRIPOS>ATOM
      1 C         -11.7968   -5.5467    0.7809 C.ar    1  LIG1       -0.0601
      2 C         -12.4680   -4.9323    1.8363 C.ar    1  LIG1       -0.0581
      3 C         -10.5686   -5.0583    0.3260 C.ar    1  LIG1       -0.0402
      4 C          -9.8712   -2.2042    2.4267 C.ar    1  LIG1       -0.0269
      5 C         -10.6915   -3.2967    2.0289 C.ar    1  LIG1        0.0012
      6 C         -11.9286   -3.8072    2.4700 C.ar    1  LIG1       -0.0336
      7 C         -10.0414   -3.9329    0.9692 C.ar    1  LIG1        0.0381
      8 C          -8.7595   -2.1985    1.6161 C.ar    1  LIG1        0.0841
      9 C          -7.6499   -1.3167    1.6079 C.ar    1  LIG1        0.2202
     10 C          -5.8613   -0.3856    1.1459 C.ar    1  LIG1        0.1589
     11 C          -1.5800    0.3357   -4.0284 C.3     1  LIG1       -0.0533
     12 C          -1.3396   -0.4902   -2.7685 C.3     1  LIG1       -0.0530
     13 C          -2.3564    1.6127   -3.7225 C.3     1  LIG1       -0.0530
     14 C          -2.6445   -0.7906   -2.0344 C.3     1  LIG1       -0.0504
     15 C          -3.6629    1.3159   -2.9899 C.3     1  LIG1       -0.0504
     16 C          -3.4243    0.4925   -1.7170 C.3     1  LIG1       -0.0410
     17 C         -13.1753   -1.3697    5.8250 C.3     1  LIG1       -0.0457
     18 C         -14.3430    0.2042    4.2889 C.3     1  LIG1       -0.0457
     19 C         -12.6955   -3.1892    3.5961 C.3     1  LIG1        0.0123
     20 C          -4.5517   -0.0802    0.4638 C.3     1  LIG1        0.0102
     21 C          -4.7490    0.1630   -1.0314 C.3     1  LIG1       -0.0432
     22 C         -13.0742   -1.7278    3.3626 C.3     1  LIG1       -0.0307
     23 N          -6.6515   -1.4324    0.7693 N.ar    1  LIG1       -0.2028
     24 N          -6.3209    0.3539    2.1596 N.ar    1  LIG1       -0.1113
     25 N          -8.8713   -3.2447    0.7401 N.ar    1  LIG1       -0.3108
     26 N         -13.8794   -1.2164    4.4992 N.4     1  LIG1        0.2420
     27 O          -7.5321   -0.2756    2.4732 O.2     1  LIG1       -0.1898
     28 H         -12.2339   -6.4193    0.3023 H       1  LIG1        0.0623
     29 H         -13.4222   -5.3388    2.1641 H       1  LIG1        0.0626
     30 H         -10.0468   -5.5374   -0.4955 H       1  LIG1        0.0642
     31 H         -10.0767   -1.4993    3.2219 H       1  LIG1        0.0651
     32 H          -0.6202    0.5901   -4.4920 H       1  LIG1        0.0266
     33 H          -2.1382   -0.2650   -4.7570 H       1  LIG1        0.0266
     34 H          -0.8409   -1.4292   -3.0337 H       1  LIG1        0.0267
     35 H          -0.6614    0.0538   -2.0995 H       1  LIG1        0.0267
     36 H          -1.7367    2.2780   -3.1088 H       1  LIG1        0.0267
     37 H          -2.5702    2.1461   -4.6556 H       1  LIG1        0.0267
     38 H          -3.2594   -1.4586   -2.6511 H       1  LIG1        0.0269
     39 H          -2.4210   -1.3317   -1.1071 H       1  LIG1        0.0269
     40 H          -4.1576    2.2611   -2.7369 H       1  LIG1        0.0269
     41 H          -4.3391    0.7739   -3.6635 H       1  LIG1        0.0269
     42 H          -2.8264    1.0968   -1.0217 H       1  LIG1        0.0303
     43 H         -12.2621   -0.7728    5.7892 H       1  LIG1        0.0777
     44 H         -13.8492   -1.0099    6.6049 H       1  LIG1        0.0777
     45 H         -12.9468   -2.4284    5.9616 H       1  LIG1        0.0777
     46 H         -13.4568    0.8375    4.2174 H       1  LIG1        0.0777
     47 H         -14.9220    0.2333    3.3638 H       1  LIG1        0.0777
     48 H         -14.9581    0.4852    5.1458 H       1  LIG1        0.0777
     49 H         -13.6218   -3.7618    3.7504 H       1  LIG1        0.0370
     50 H         -12.1373   -3.2790    4.5393 H       1  LIG1        0.0370
     51 H          -4.0884    0.8002    0.9281 H       1  LIG1        0.0350
     52 H          -3.8504   -0.9104    0.6183 H       1  LIG1        0.0350
     53 H          -5.1817   -0.7218   -1.5090 H       1  LIG1        0.0274
     54 H          -5.4457    0.9909   -1.1959 H       1  LIG1        0.0274
     55 H         -13.6996   -1.6232    2.4711 H       1  LIG1        0.0818
     56 H         -12.2011   -1.0745    3.2714 H       1  LIG1        0.0818
     57 H          -8.1956   -3.4832    0.0269 H       1  LIG1        0.1529
     58 H         -14.7373   -1.7907    4.5628 H       1  LIG1        0.1997
@<TRIPOS>BOND
     1     1     2   ar
     2     1     3   ar
     3     2     6   ar
     4     3     7   ar
     5     4     5   ar
     6     4     8   ar
     7     5     6   ar
     8     5     7   ar
     9     6    19    1
    10     7    25   ar
    11     8     9    1
    12     8    25   ar
    13     9    23   ar
    14     9    27   ar
    15    10    20    1
    16    10    23   ar
    17    10    24   ar
    18    11    12    1
    19    11    13    1
    20    12    14    1
    21    13    15    1
    22    14    16    1
    23    15    16    1
    24    16    21    1
    25    17    26    1
    26    18    26    1
    27    19    22    1
    28    20    21    1
    29    22    26    1
    30    24    27   ar
    31     1    28    1
    32     2    29    1
    33     3    30    1
    34     4    31    1
    35    11    32    1
    36    11    33    1
    37    12    34    1
    38    12    35    1
    39    13    36    1
    40    13    37    1
    41    14    38    1
    42    14    39    1
    43    15    40    1
    44    15    41    1
    45    16    42    1
    46    17    43    1
    47    17    44    1
    48    17    45    1
    49    18    46    1
    50    18    47    1
    51    18    48    1
    52    19    49    1
    53    19    50    1
    54    20    51    1
    55    20    52    1
    56    21    53    1
    57    21    54    1
    58    22    55    1
    59    22    56    1
    60    25    57    1
    61    26    58    1
