@<TRIPOS>MOLECULE
ChEBML783704
 55 58 0 0 0
SMALL
USER_CHARGES

@<TRIPOS>ATOM
      1 C          -1.9614    0.3976   -3.6085 C.ar    1  LIG1       -0.0584
      2 C         -10.5130   -1.8271    1.8721 C.ar    1  LIG1       -0.0536
      3 C         -10.3879   -5.3898    0.8370 C.ar    1  LIG1       -0.0517
      4 C          -9.2106   -1.6314    2.3324 C.ar    1  LIG1       -0.0508
      5 C         -11.6903   -5.5855    0.3768 C.ar    1  LIG1       -0.0312
      6 C          -2.7094    1.5694   -3.6321 C.ar    1  LIG1       -0.0408
      7 C          -2.3155   -0.6295   -2.7407 C.ar    1  LIG1       -0.0351
      8 C          -8.6780   -3.9261    1.8048 C.ar    1  LIG1       -0.0435
      9 C         -12.2228   -3.2909    0.9044 C.ar    1  LIG1       -0.0239
     10 C          -9.9848   -4.1410    1.3374 C.ar    1  LIG1       -0.0175
     11 C         -10.9161   -3.0758    1.3717 C.ar    1  LIG1       -0.0157
     12 C          -8.2948   -2.6788    2.2987 C.ar    1  LIG1        0.0187
     13 C         -12.6061   -4.5380    0.4105 C.ar    1  LIG1        0.0752
     14 C          -3.7938    1.6639   -2.7747 C.ar    1  LIG1        0.0379
     15 C          -3.4173   -0.4365   -1.9231 C.ar    1  LIG1        0.0843
     16 C          -6.9277   -2.4714    2.7830 C.2     1  LIG1        0.1707
     17 C          -4.2102    0.1982    2.4185 C.3     1  LIG1       -0.0127
     18 C          -5.1432   -0.7978    3.0994 C.3     1  LIG1       -0.0331
     19 C          -3.4811   -0.4283    1.2389 C.3     1  LIG1       -0.0339
     20 C          -5.3724   -2.0428    0.9146 C.3     1  LIG1       -0.0236
     21 C          -6.1109   -1.4218    2.0948 C.3     1  LIG1        0.0616
     22 C          -4.6196    2.9069   -2.7733 C.3     1  LIG1       -0.0222
     23 C         -14.7637   -3.6151    0.0249 C.3     1  LIG1        0.0422
     24 C          -3.8288   -1.5233   -0.9742 C.3     1  LIG1        0.0093
     25 N          -4.1684    0.6877   -1.9178 N.ar    1  LIG1       -0.2526
     26 N          -4.4900   -0.9994    0.2709 N.4     1  LIG1        0.2510
     27 O          -6.4128   -3.0987    3.7029 O.2     1  LIG1       -0.2935
     28 O         -13.8767   -4.7309   -0.0382 O.3     1  LIG1       -0.3493
     29 H          -1.1030    0.2860   -4.2642 H       1  LIG1        0.0624
     30 H         -11.2123   -0.9943    1.9083 H       1  LIG1        0.0629
     31 H          -9.6891   -6.2230    0.8006 H       1  LIG1        0.0630
     32 H          -8.9228   -0.6557    2.7156 H       1  LIG1        0.0630
     33 H         -11.9835   -6.5587   -0.0076 H       1  LIG1        0.0650
     34 H          -2.4428    2.3786   -4.3035 H       1  LIG1        0.0642
     35 H          -1.7412   -1.5492   -2.7134 H       1  LIG1        0.0644
     36 H          -7.9531   -4.7384    1.7832 H       1  LIG1        0.0637
     37 H         -12.9512   -2.4820    0.9236 H       1  LIG1        0.0657
     38 H          -4.7901    1.0638    2.0750 H       1  LIG1        0.0321
     39 H          -3.4798    0.5728    3.1443 H       1  LIG1        0.0321
     40 H          -4.5472   -1.5811    3.5863 H       1  LIG1        0.0278
     41 H          -5.7012   -0.2945    3.8983 H       1  LIG1        0.0278
     42 H          -2.8988    0.3266    0.7006 H       1  LIG1        0.0814
     43 H          -2.8218   -1.2451    1.5535 H       1  LIG1        0.0814
     44 H          -4.7319   -2.8806    1.2156 H       1  LIG1        0.0822
     45 H          -6.0783   -2.3922    0.1525 H       1  LIG1        0.0822
     46 H          -6.8047   -0.6525    1.7334 H       1  LIG1        0.0442
     47 H          -5.4385    2.8210   -3.4976 H       1  LIG1        0.0296
     48 H          -5.0496    3.0973   -1.7818 H       1  LIG1        0.0296
     49 H          -4.0155    3.7857   -3.0325 H       1  LIG1        0.0296
     50 H         -15.7431   -3.9050   -0.3634 H       1  LIG1        0.0535
     51 H         -14.3556   -2.7904   -0.5648 H       1  LIG1        0.0535
     52 H         -14.8657   -3.3005    1.0661 H       1  LIG1        0.0535
     53 H          -4.5415   -2.2099   -1.4437 H       1  LIG1        0.0885
     54 H          -2.9644   -2.1115   -0.6477 H       1  LIG1        0.0885
     55 H          -5.0995   -0.2255   -0.0277 H       1  LIG1        0.2008
@<TRIPOS>BOND
     1     1     6   ar
     2     1     7   ar
     3     2     4   ar
     4     2    11   ar
     5     3     5   ar
     6     3    10   ar
     7     4    12   ar
     8     5    13   ar
     9     6    14   ar
    10     7    15   ar
    11     8    10   ar
    12     8    12   ar
    13     9    11   ar
    14     9    13   ar
    15    10    11   ar
    16    12    16    1
    17    13    28    1
    18    14    22    1
    19    14    25   ar
    20    15    24    1
    21    15    25   ar
    22    16    21    1
    23    16    27    2
    24    17    18    1
    25    17    19    1
    26    18    21    1
    27    19    26    1
    28    20    21    1
    29    20    26    1
    30    23    28    1
    31    24    26    1
    32     1    29    1
    33     2    30    1
    34     3    31    1
    35     4    32    1
    36     5    33    1
    37     6    34    1
    38     7    35    1
    39     8    36    1
    40     9    37    1
    41    17    38    1
    42    17    39    1
    43    18    40    1
    44    18    41    1
    45    19    42    1
    46    19    43    1
    47    20    44    1
    48    20    45    1
    49    21    46    1
    50    22    47    1
    51    22    48    1
    52    22    49    1
    53    23    50    1
    54    23    51    1
    55    23    52    1
    56    24    53    1
    57    24    54    1
    58    26    55    1
