@<TRIPOS>MOLECULE
ChEBML167435
 44 46 0 0 0
SMALL
USER_CHARGES

@<TRIPOS>ATOM
      1 C          -1.7602    0.8989   -2.9221 C.ar    1  LIG1       -0.0622
      2 C          -1.6998   -0.0741   -1.9244 C.ar    1  LIG1       -0.0619
      3 C          -2.9936    1.2805   -3.4502 C.ar    1  LIG1       -0.0619
      4 C         -11.3194   -2.1629    2.7110 C.ar    1  LIG1       -0.0536
      5 C         -10.4502   -5.0115    0.4951 C.ar    1  LIG1       -0.0538
      6 C         -10.1681   -1.3809    2.6135 C.ar    1  LIG1       -0.0490
      7 C          -2.8725   -0.6655   -1.4550 C.ar    1  LIG1       -0.0575
      8 C          -4.1664    0.6891   -2.9807 C.ar    1  LIG1       -0.0575
      9 C         -11.6015   -5.7935    0.5928 C.ar    1  LIG1       -0.0521
     10 C          -9.1944   -2.9998    1.1107 C.ar    1  LIG1       -0.0417
     11 C         -12.5752   -4.1746    2.0957 C.ar    1  LIG1       -0.0448
     12 C         -10.3456   -3.7996    1.1970 C.ar    1  LIG1       -0.0176
     13 C         -11.4240   -3.3749    2.0092 C.ar    1  LIG1       -0.0178
     14 C          -9.1077   -1.7986    1.8148 C.ar    1  LIG1        0.0391
     15 C          -4.1059   -0.2839   -1.9832 C.ar    1  LIG1       -0.0295
     16 C         -12.6619   -5.3759    1.3914 C.ar    1  LIG1        0.0247
     17 C          -7.9083   -0.9821    1.7149 C.2     1  LIG1        0.2588
     18 C          -5.3655   -0.9186   -1.4798 C.3     1  LIG1        0.0590
     19 C         -13.8918   -6.2131    1.4950 C.3     1  LIG1        0.2804
     20 N          -7.1401   -1.1040    0.4972 N.am    1  LIG1       -0.2281
     21 O         -16.2843   -6.9750    0.6701 O.3     1  LIG1       -0.5971
     22 O         -15.6025   -4.5049    0.4383 O.3     1  LIG1       -0.5971
     23 O          -7.5593   -0.2142    2.6243 O.2     1  LIG1       -0.2703
     24 O         -14.5156   -6.2873   -1.0677 O.2     1  LIG1       -0.6590
     25 O          -5.9728    1.1588   -0.0101 O.2     1  LIG1       -0.4807
     26 O          -4.6491   -0.7257    1.0211 O.2     1  LIG1       -0.4807
     27 F         -13.6984   -7.5499    1.3521 F       1  LIG1       -0.1973
     28 F         -14.6197   -6.0382    2.6283 F       1  LIG1       -0.1973
     29 P         -15.2203   -5.9682    0.2460 P.3     1  LIG1       -0.0759
     30 S          -5.6968   -0.2567    0.1352 S.O2    1  LIG1       -0.1861
     31 H          -0.8470    1.3602   -3.2865 H       1  LIG1        0.0622
     32 H          -0.7396   -0.3706   -1.5123 H       1  LIG1        0.0623
     33 H          -3.0412    2.0388   -4.2261 H       1  LIG1        0.0623
     34 H         -12.1359   -1.8168    3.3414 H       1  LIG1        0.0629
     35 H          -9.6336   -5.3574   -0.1352 H       1  LIG1        0.0629
     36 H         -10.1108   -0.4468    3.1664 H       1  LIG1        0.0631
     37 H          -2.8158   -1.4230   -0.6776 H       1  LIG1        0.0626
     38 H          -5.1228    0.9927   -3.3981 H       1  LIG1        0.0626
     39 H         -11.6608   -6.7277    0.0404 H       1  LIG1        0.0628
     40 H          -8.3584   -3.3166    0.4888 H       1  LIG1        0.0637
     41 H         -13.4120   -3.8595    2.7169 H       1  LIG1        0.0634
     42 H          -5.2698   -2.0043   -1.3900 H       1  LIG1        0.0530
     43 H          -6.2221   -0.6950   -2.1218 H       1  LIG1        0.0530
     44 H          -7.4906   -1.7567   -0.2139 H       1  LIG1        0.1736
@<TRIPOS>BOND
     1     1     2   ar
     2     1     3   ar
     3     2     7   ar
     4     3     8   ar
     5     4     6   ar
     6     4    13   ar
     7     5     9   ar
     8     5    12   ar
     9     6    14   ar
    10     7    15   ar
    11     8    15   ar
    12     9    16   ar
    13    10    12   ar
    14    10    14   ar
    15    11    13   ar
    16    11    16   ar
    17    12    13   ar
    18    14    17    1
    19    15    18    1
    20    16    19    1
    21    17    20   am
    22    17    23    2
    23    18    30    1
    24    19    27    1
    25    19    28    1
    26    19    29    1
    27    20    30    1
    28    21    29    1
    29    22    29    1
    30    24    29    2
    31    25    30    2
    32    26    30    2
    33     1    31    1
    34     2    32    1
    35     3    33    1
    36     4    34    1
    37     5    35    1
    38     6    36    1
    39     7    37    1
    40     8    38    1
    41     9    39    1
    42    10    40    1
    43    11    41    1
    44    18    42    1
    45    18    43    1
    46    20    44    1
