@<TRIPOS>MOLECULE
ChEBML1137621
 51 54 0 0 0
SMALL
USER_CHARGES

@<TRIPOS>ATOM
      1 C          -2.3174    0.8717   -3.5783 C.ar    1  LIG1       -0.0618
      2 C          -3.5743    1.2881   -3.1788 C.ar    1  LIG1       -0.0604
      3 C         -13.0404   -2.3452    1.7168 C.ar    1  LIG1       -0.0513
      4 C         -12.6505   -4.4857    0.6793 C.ar    1  LIG1       -0.0513
      5 C          -1.6835   -0.1607   -2.9120 C.ar    1  LIG1       -0.0572
      6 C          -4.2004    0.6736   -2.1125 C.ar    1  LIG1       -0.0406
      7 C         -14.3992   -2.5851    1.6893 C.ar    1  LIG1       -0.0428
      8 C         -14.0106   -4.7193    0.6619 C.ar    1  LIG1       -0.0428
      9 C         -10.0590   -1.8957    1.7469 C.ar    1  LIG1       -0.0059
     10 C         -12.1569   -3.2975    1.2134 C.ar    1  LIG1        0.0019
     11 C          -2.3039   -0.7796   -1.8443 C.ar    1  LIG1       -0.0270
     12 C          -3.5685   -0.3678   -1.4441 C.ar    1  LIG1        0.0319
     13 C         -14.8846   -3.7697    1.1628 C.ar    1  LIG1        0.0406
     14 C         -10.6944   -3.0443    1.2407 C.ar    1  LIG1        0.0905
     15 C          -8.7077   -2.1133    1.5577 C.ar    1  LIG1        0.1123
     16 C          -7.6093   -1.2031    1.9207 C.2     1  LIG1        0.2614
     17 C          -4.5618    0.0617    0.5834 C.3     1  LIG1        0.0274
     18 C          -5.4505   -1.5637   -0.8873 C.3     1  LIG1        0.0274
     19 C          -5.2423   -0.5600    1.8072 C.3     1  LIG1        0.0303
     20 C          -6.1896   -2.2926    0.2394 C.3     1  LIG1        0.0303
     21 C          -2.0708   -3.2440   -1.6981 C.3     1  LIG1       -0.0612
     22 C          -1.6120   -1.9046   -1.1184 C.3     1  LIG1       -0.0289
     23 N          -9.7566   -3.8539    0.7959 N.ar    1  LIG1       -0.1834
     24 N          -8.5924   -3.3377    0.9617 N.ar    1  LIG1       -0.2326
     25 N          -4.2012   -0.9952   -0.3685 N.pl3   1  LIG1       -0.3274
     26 N          -6.3983   -1.3458    1.3466 N.am    1  LIG1       -0.2935
     27 O          -7.7946   -0.3222    2.7385 O.2     1  LIG1       -0.2701
     28 CL        -16.5949   -4.0658    1.1310 Cl      1  LIG1       -0.0843
     29 H          -1.8298    1.3544   -4.4124 H       1  LIG1        0.0623
     30 H          -4.0665    2.0951   -3.7011 H       1  LIG1        0.0623
     31 H         -12.6626   -1.4207    2.1281 H       1  LIG1        0.0630
     32 H         -11.9697   -5.2248    0.2836 H       1  LIG1        0.0630
     33 H          -0.7020   -0.4835   -3.2266 H       1  LIG1        0.0626
     34 H          -5.1817    0.9994   -1.8007 H       1  LIG1        0.0642
     35 H         -15.0849   -1.8475    2.0796 H       1  LIG1        0.0638
     36 H         -14.3939   -5.6423    0.2527 H       1  LIG1        0.0638
     37 H         -10.5276   -1.0290    2.1894 H       1  LIG1        0.0668
     38 H          -3.6616    0.5898    0.8978 H       1  LIG1        0.0485
     39 H          -5.2455    0.7632    0.1051 H       1  LIG1        0.0485
     40 H          -6.0798   -0.7630   -1.2757 H       1  LIG1        0.0485
     41 H          -5.2239   -2.2678   -1.6879 H       1  LIG1        0.0485
     42 H          -4.5394   -1.2112    2.3268 H       1  LIG1        0.0486
     43 H          -5.5791    0.2286    2.4801 H       1  LIG1        0.0486
     44 H          -5.5916   -3.1358    0.5853 H       1  LIG1        0.0486
     45 H          -7.1529   -2.6499   -0.1246 H       1  LIG1        0.0486
     46 H          -1.5704   -4.0577   -1.1730 H       1  LIG1        0.0234
     47 H          -3.1496   -3.3423   -1.5764 H       1  LIG1        0.0234
     48 H          -1.8194   -3.2866   -2.7578 H       1  LIG1        0.0234
     49 H          -1.8633   -1.8620   -0.0587 H       1  LIG1        0.0314
     50 H          -0.5333   -1.8063   -1.2402 H       1  LIG1        0.0314
     51 H          -7.7558   -3.7556    0.7042 H       1  LIG1        0.1757
@<TRIPOS>BOND
     1     1     2   ar
     2     1     5   ar
     3     2     6   ar
     4     3     7   ar
     5     3    10   ar
     6     4     8   ar
     7     4    10   ar
     8     5    11   ar
     9     6    12   ar
    10     7    13   ar
    11     8    13   ar
    12     9    14   ar
    13     9    15   ar
    14    10    14    1
    15    11    12   ar
    16    11    22    1
    17    12    25    1
    18    13    28    1
    19    14    23   ar
    20    15    16    1
    21    15    24   ar
    22    16    26   am
    23    16    27    2
    24    17    19    1
    25    17    25    1
    26    18    20    1
    27    18    25    1
    28    19    26    1
    29    20    26    1
    30    21    22    1
    31    23    24   ar
    32     1    29    1
    33     2    30    1
    34     3    31    1
    35     4    32    1
    36     5    33    1
    37     6    34    1
    38     7    35    1
    39     8    36    1
    40     9    37    1
    41    17    38    1
    42    17    39    1
    43    18    40    1
    44    18    41    1
    45    19    42    1
    46    19    43    1
    47    20    44    1
    48    20    45    1
    49    21    46    1
    50    21    47    1
    51    21    48    1
    52    22    49    1
    53    22    50    1
    54    24    51    1
