@<TRIPOS>MOLECULE
ChEBML220996
 39 41 0 0 0
SMALL
USER_CHARGES

@<TRIPOS>ATOM
      1 C          -1.4225    0.7946   -2.9419 C.ar    1  LIG1       -0.0622
      2 C          -2.1754    1.6229   -2.1096 C.ar    1  LIG1       -0.0620
      3 C          -1.9478   -0.4232   -3.3740 C.ar    1  LIG1       -0.0620
      4 C         -10.4008   -2.1526    2.2290 C.ar    1  LIG1       -0.0535
      5 C          -9.0610   -1.8265    2.0170 C.ar    1  LIG1       -0.0482
      6 C          -3.4536    1.2333   -1.7092 C.ar    1  LIG1       -0.0589
      7 C          -3.2259   -0.8128   -2.9737 C.ar    1  LIG1       -0.0589
      8 C          -8.7638   -3.8629    0.7549 C.ar    1  LIG1       -0.0409
      9 C         -12.2871   -3.6832    1.9101 C.ar    1  LIG1       -0.0215
     10 C         -10.6503   -5.3934    0.4360 C.ar    1  LIG1       -0.0215
     11 C         -10.9409   -3.3391    1.7066 C.ar    1  LIG1       -0.0156
     12 C         -10.1101   -4.2070    0.9584 C.ar    1  LIG1       -0.0148
     13 C          -8.2441   -2.6800    1.2813 C.ar    1  LIG1        0.0476
     14 C          -3.9788    0.0154   -2.1413 C.ar    1  LIG1       -0.0457
     15 C         -12.8070   -4.8661    1.3837 C.ar    1  LIG1        0.1019
     16 C         -11.9901   -5.7195    0.6480 C.ar    1  LIG1        0.1019
     17 C          -6.8480   -2.3370    1.0604 C.2     1  LIG1        0.2927
     18 C          -5.3551   -0.4049   -1.7105 C.3     1  LIG1       -0.0036
     19 C          -5.3495   -1.2067   -0.4123 C.3     1  LIG1        0.0607
     20 O          -5.9193   -2.6647    1.8107 O.2     1  LIG1       -0.2606
     21 O         -14.1168   -5.1746    1.5972 O.3     1  LIG1       -0.3582
     22 O         -12.4867   -6.8769    0.1288 O.3     1  LIG1       -0.3582
     23 O          -6.6848   -1.6054   -0.0842 O.3     1  LIG1       -0.3117
     24 H          -0.4279    1.0988   -3.2546 H       1  LIG1        0.0622
     25 H          -1.7671    2.5716   -1.7739 H       1  LIG1        0.0623
     26 H          -1.3623   -1.0677   -4.0230 H       1  LIG1        0.0623
     27 H         -11.0206   -1.4706    2.8069 H       1  LIG1        0.0629
     28 H          -8.6663   -0.9024    2.4314 H       1  LIG1        0.0631
     29 H          -4.0329    1.8849   -1.0604 H       1  LIG1        0.0625
     30 H          -3.6269   -1.7634   -3.3152 H       1  LIG1        0.0625
     31 H          -8.1148   -4.5227    0.1810 H       1  LIG1        0.0638
     32 H         -12.9389   -3.0264    2.4836 H       1  LIG1        0.0658
     33 H         -10.0248   -6.0719   -0.1418 H       1  LIG1        0.0658
     34 H          -5.9900    0.4826   -1.5924 H       1  LIG1        0.0340
     35 H          -5.8090   -1.0123   -2.5035 H       1  LIG1        0.0340
     36 H          -4.7507   -2.1143   -0.5403 H       1  LIG1        0.0577
     37 H          -4.9386   -0.6287    0.4221 H       1  LIG1        0.0577
     38 H         -14.5427   -4.4806    2.1244 H       1  LIG1        0.2183
     39 H         -11.7924   -7.3530   -0.3532 H       1  LIG1        0.2183
@<TRIPOS>BOND
     1     1     2   ar
     2     1     3   ar
     3     2     6   ar
     4     3     7   ar
     5     4     5   ar
     6     4    11   ar
     7     5    13   ar
     8     6    14   ar
     9     7    14   ar
    10     8    12   ar
    11     8    13   ar
    12     9    11   ar
    13     9    15   ar
    14    10    12   ar
    15    10    16   ar
    16    11    12   ar
    17    13    17    1
    18    14    18    1
    19    15    16   ar
    20    15    21    1
    21    16    22    1
    22    17    20    2
    23    17    23    1
    24    18    19    1
    25    19    23    1
    26     1    24    1
    27     2    25    1
    28     3    26    1
    29     4    27    1
    30     5    28    1
    31     6    29    1
    32     7    30    1
    33     8    31    1
    34     9    32    1
    35    10    33    1
    36    18    34    1
    37    18    35    1
    38    19    36    1
    39    19    37    1
    40    21    38    1
    41    22    39    1
