@<TRIPOS>MOLECULE
ChEBML347770
 34 37 0 0 0
SMALL
USER_CHARGES

@<TRIPOS>ATOM
      1 C         -10.3426   -5.1744    0.4638 C.ar    1  LIG1       -0.0376
      2 C          -4.3617   -2.5785   -1.8217 C.ar    1  LIG1       -0.0376
      3 C         -11.6797   -5.5305    0.6621 C.ar    1  LIG1       -0.0302
      4 C          -3.3478   -1.9060   -2.5097 C.ar    1  LIG1       -0.0302
      5 C         -12.0853   -3.5143    1.9535 C.ar    1  LIG1       -0.0229
      6 C          -3.7375    0.1169   -1.2240 C.ar    1  LIG1       -0.0229
      7 C          -9.9603   -2.0183    2.1778 C.ar    1  LIG1       -0.0275
      8 C          -5.6546   -0.1553    0.5240 C.ar    1  LIG1       -0.0275
      9 C         -10.7413   -3.1346    1.7670 C.ar    1  LIG1        0.0003
     10 C          -4.7640   -0.5404   -0.5170 C.ar    1  LIG1        0.0003
     11 C          -9.9027   -3.9717    1.0279 C.ar    1  LIG1        0.0379
     12 C          -5.0518   -1.8702   -0.8316 C.ar    1  LIG1        0.0379
     13 C         -12.5394   -4.7147    1.3951 C.ar    1  LIG1        0.0720
     14 C          -3.0388   -0.5790   -2.2171 C.ar    1  LIG1        0.0720
     15 C          -8.6863   -2.1961    1.6896 C.ar    1  LIG1        0.0811
     16 C          -6.4511   -1.2385    0.8156 C.ar    1  LIG1        0.0811
     17 C          -7.5513   -1.3418    1.8418 C.2     1  LIG1        0.2206
     18 N          -8.6615   -3.3769    0.9972 N.ar    1  LIG1       -0.3112
     19 N          -6.0800   -2.2681   -0.0069 N.ar    1  LIG1       -0.3112
     20 O          -7.4111   -0.6207    2.8570 O.2     1  LIG1       -0.2856
     21 O         -13.8380   -5.0891    1.5712 O.3     1  LIG1       -0.3609
     22 O          -2.0446    0.0498   -2.9054 O.3     1  LIG1       -0.3609
     23 H          -9.6742   -5.8099   -0.1073 H       1  LIG1        0.0643
     24 H          -4.6013   -3.6116   -2.0499 H       1  LIG1        0.0643
     25 H         -12.0471   -6.4603    0.2341 H       1  LIG1        0.0651
     26 H          -2.7959   -2.4337   -3.2842 H       1  LIG1        0.0651
     27 H         -12.7622   -2.8834    2.5234 H       1  LIG1        0.0657
     28 H          -3.4901    1.1513   -1.0013 H       1  LIG1        0.0657
     29 H         -10.2985   -1.1768    2.7680 H       1  LIG1        0.0651
     30 H          -5.7039    0.8125    1.0053 H       1  LIG1        0.0651
     31 H          -7.8511   -3.7597    0.5297 H       1  LIG1        0.1529
     32 H          -6.4977   -3.1886   -0.0109 H       1  LIG1        0.1529
     33 H         -14.3089   -4.4252    2.0986 H       1  LIG1        0.2182
     34 H          -1.9466    0.9624   -2.5924 H       1  LIG1        0.2182
@<TRIPOS>BOND
     1     1     3   ar
     2     1    11   ar
     3     2     4   ar
     4     2    12   ar
     5     3    13   ar
     6     4    14   ar
     7     5     9   ar
     8     5    13   ar
     9     6    10   ar
    10     6    14   ar
    11     7     9   ar
    12     7    15   ar
    13     8    10   ar
    14     8    16   ar
    15     9    11   ar
    16    10    12   ar
    17    11    18   ar
    18    12    19   ar
    19    13    21    1
    20    14    22    1
    21    15    17    1
    22    15    18   ar
    23    16    17    1
    24    16    19   ar
    25    17    20    2
    26     1    23    1
    27     2    24    1
    28     3    25    1
    29     4    26    1
    30     5    27    1
    31     6    28    1
    32     7    29    1
    33     8    30    1
    34    18    31    1
    35    19    32    1
    36    21    33    1
    37    22    34    1
