@<TRIPOS>MOLECULE
ChEBML368223
 53 56 0 0 0
SMALL
USER_CHARGES

@<TRIPOS>ATOM
      1 C         -12.2180   -3.3728    1.3748 C.ar    1  LIG1       -0.0515
      2 C         -12.6386   -4.6792    1.1010 C.ar    1  LIG1       -0.0428
      3 C         -10.0749   -1.9254    1.7170 C.ar    1  LIG1       -0.0158
      4 C         -10.3382   -5.4550    0.9972 C.ar    1  LIG1       -0.0214
      5 C         -10.8385   -3.0989    1.4620 C.ar    1  LIG1       -0.0010
      6 C          -9.9323   -4.1443    1.2717 C.ar    1  LIG1        0.0401
      7 C         -11.7114   -5.7029    0.9155 C.ar    1  LIG1        0.0425
      8 C          -8.7448   -2.2747    1.6775 C.ar    1  LIG1        0.1129
      9 C          -4.6849   -1.1268   -0.3839 C.2     1  LIG1        0.2367
     10 C          -2.2801   -0.7519   -2.3849 C.2     1  LIG1        0.2348
     11 C          -6.4007   -1.3398   -2.0360 C.3     1  LIG1       -0.0087
     12 C          -5.5003   -0.1686   -2.3866 C.3     1  LIG1        0.0173
     13 C          -0.6645   -2.5989   -1.8635 C.3     1  LIG1        0.0378
     14 C          -0.4146   -0.4277   -0.7338 C.3     1  LIG1        0.0378
     15 C           0.8337   -2.5769   -2.1308 C.3     1  LIG1        0.0625
     16 C           1.0752   -0.4988   -1.0437 C.3     1  LIG1        0.0625
     17 C          -6.0981   -1.6207   -0.5684 C.3     1  LIG1        0.1114
     18 C          -3.1871    1.5559   -2.5301 C.3     1  LIG1       -0.0376
     19 C          -3.0977    0.3054   -1.6868 C.3     1  LIG1        0.0995
     20 N          -8.6688   -3.6149    1.4080 N.ar    1  LIG1       -0.3017
     21 N          -4.3736   -0.3116   -1.4822 N.am    1  LIG1       -0.2885
     22 N          -1.1722   -1.2375   -1.6938 N.am    1  LIG1       -0.2957
     23 N          -6.9479   -0.8022    0.3149 N.3     1  LIG1       -0.2767
     24 O          -3.9800   -1.3719    0.5844 O.2     1  LIG1       -0.2752
     25 O          -2.6143   -1.1306   -3.5101 O.2     1  LIG1       -0.2752
     26 O          -7.6104   -0.1694    2.7221 O.2     1  LIG1       -0.4751
     27 O          -6.2347   -2.2371    2.3267 O.2     1  LIG1       -0.4751
     28 O           1.5098   -1.8604   -1.0943 O.3     1  LIG1       -0.3781
     29 S          -7.2749   -1.3191    1.9039 S.O2    1  LIG1       -0.1539
     30 CL        -12.2628   -7.3008    0.5788 Cl      1  LIG1       -0.0842
     31 H         -12.9510   -2.5835    1.5162 H       1  LIG1        0.0630
     32 H         -13.7054   -4.8809    1.0340 H       1  LIG1        0.0638
     33 H         -10.4580   -0.9321    1.9078 H       1  LIG1        0.0663
     34 H          -9.6067   -6.2445    0.8551 H       1  LIG1        0.0658
     35 H          -7.4546   -1.1332   -2.2459 H       1  LIG1        0.0307
     36 H          -6.1032   -2.2102   -2.6347 H       1  LIG1        0.0307
     37 H          -5.1607   -0.2043   -3.4257 H       1  LIG1        0.0470
     38 H          -5.9831    0.7928   -2.1837 H       1  LIG1        0.0470
     39 H          -1.1895   -3.1188   -2.6704 H       1  LIG1        0.0493
     40 H          -0.8736   -3.1271   -0.9257 H       1  LIG1        0.0493
     41 H          -0.6146   -0.8560    0.2555 H       1  LIG1        0.0493
     42 H          -0.7419    0.6132   -0.7224 H       1  LIG1        0.0493
     43 H           1.2280   -3.5977   -2.1469 H       1  LIG1        0.0583
     44 H           1.0606   -2.1128   -3.0979 H       1  LIG1        0.0583
     45 H           1.3084   -0.0099   -1.9972 H       1  LIG1        0.0583
     46 H           1.6464    0.0076   -0.2597 H       1  LIG1        0.0583
     47 H          -6.1897   -2.6805   -0.3190 H       1  LIG1        0.0617
     48 H          -3.6399    1.3566   -3.5082 H       1  LIG1        0.0255
     49 H          -3.8026    2.3098   -2.0280 H       1  LIG1        0.0255
     50 H          -2.1945    1.9833   -2.7064 H       1  LIG1        0.0255
     51 H          -2.6480    0.5032   -0.7151 H       1  LIG1        0.0604
     52 H          -7.8112   -4.1426    1.3195 H       1  LIG1        0.1540
     53 H          -6.9785    0.2005    0.1017 H       1  LIG1        0.1650
@<TRIPOS>BOND
     1     1     2   ar
     2     1     5   ar
     3     2     7   ar
     4     3     5   ar
     5     3     8   ar
     6     4     6   ar
     7     4     7   ar
     8     5     6   ar
     9     6    20   ar
    10     7    30    1
    11     8    20   ar
    12     8    29    1
    13     9    17    1
    14     9    21   am
    15     9    24    2
    16    10    19    1
    17    10    22   am
    18    10    25    2
    19    11    12    1
    20    11    17    1
    21    12    21    1
    22    13    15    1
    23    13    22    1
    24    14    16    1
    25    14    22    1
    26    15    28    1
    27    16    28    1
    28    17    23    1
    29    18    19    1
    30    19    21    1
    31    23    29    1
    32    26    29    2
    33    27    29    2
    34     1    31    1
    35     2    32    1
    36     3    33    1
    37     4    34    1
    38    11    35    1
    39    11    36    1
    40    12    37    1
    41    12    38    1
    42    13    39    1
    43    13    40    1
    44    14    41    1
    45    14    42    1
    46    15    43    1
    47    15    44    1
    48    16    45    1
    49    16    46    1
    50    17    47    1
    51    18    48    1
    52    18    49    1
    53    18    50    1
    54    19    51    1
    55    20    52    1
    56    23    53    1
