@<TRIPOS>MOLECULE
ChEBML184527
 39 40 0 0 0
SMALL
USER_CHARGES

@<TRIPOS>ATOM
      1 C         -12.5567   -4.7174    1.2885 C.ar    1  LIG1       -0.0615
      2 C         -11.6492   -5.5609    0.6508 C.ar    1  LIG1       -0.0603
      3 C         -12.1368   -3.5054    1.8485 C.ar    1  LIG1       -0.0530
      4 C         -10.2967   -5.2218    0.5522 C.ar    1  LIG1       -0.0402
      5 C         -10.0211   -2.0213    2.2033 C.ar    1  LIG1       -0.0262
      6 C         -10.7781   -3.1423    1.7614 C.ar    1  LIG1       -0.0022
      7 C          -9.8912   -4.0071    1.1166 C.ar    1  LIG1        0.0378
      8 C          -8.7137   -2.2236    1.8255 C.ar    1  LIG1        0.0944
      9 C          -7.5406   -1.3415    2.0552 C.2     1  LIG1        0.2572
     10 C          -4.7621   -0.7968   -0.7810 C.3     1  LIG1       -0.0518
     11 C          -4.4859    0.2039   -1.9052 C.3     1  LIG1       -0.0525
     12 C          -4.8352   -0.0967    0.5793 C.3     1  LIG1       -0.0376
     13 C          -3.1414    0.9090   -1.7067 C.3     1  LIG1       -0.0444
     14 C          -5.0966   -1.0703    1.7243 C.3     1  LIG1        0.0114
     15 C          -2.8927    1.9298   -2.8132 C.3     1  LIG1       -0.0098
     16 N          -8.6454   -3.4239    1.1705 N.ar    1  LIG1       -0.3101
     17 N          -6.3250   -1.7988    1.5600 N.am    1  LIG1       -0.3103
     18 O          -7.6920   -0.2902    2.6721 O.2     1  LIG1       -0.2704
     19 S          -1.2987    2.7623   -2.5650 S.3     1  LIG1       -0.1793
     20 H         -13.6037   -5.0024    1.3520 H       1  LIG1        0.0623
     21 H         -11.9971   -6.4975    0.2233 H       1  LIG1        0.0623
     22 H         -12.8550   -2.8570    2.3425 H       1  LIG1        0.0629
     23 H          -9.5903   -5.8787    0.0561 H       1  LIG1        0.0642
     24 H         -10.3974   -1.1606    2.7402 H       1  LIG1        0.0651
     25 H          -5.7077   -1.3168   -0.9768 H       1  LIG1        0.0267
     26 H          -3.9716   -1.5565   -0.7685 H       1  LIG1        0.0267
     27 H          -5.2901    0.9491   -1.9392 H       1  LIG1        0.0267
     28 H          -4.4876   -0.3179   -2.8702 H       1  LIG1        0.0267
     29 H          -5.6440    0.6436    0.5594 H       1  LIG1        0.0282
     30 H          -3.9016    0.4496    0.7621 H       1  LIG1        0.0282
     31 H          -2.3400    0.1595   -1.6983 H       1  LIG1        0.0275
     32 H          -3.1363    1.4053   -0.7280 H       1  LIG1        0.0275
     33 H          -5.1443   -0.5459    2.6839 H       1  LIG1        0.0467
     34 H          -4.2924   -1.8105    1.7783 H       1  LIG1        0.0467
     35 H          -2.8798    1.4419   -3.7930 H       1  LIG1        0.0377
     36 H          -3.6816    2.6886   -2.8233 H       1  LIG1        0.0377
     37 H          -7.8036   -3.8270    0.7822 H       1  LIG1        0.1529
     38 H          -6.2726   -2.7126    1.1140 H       1  LIG1        0.1497
     39 H          -1.3804    3.5503   -3.6456 H       1  LIG1        0.1022
@<TRIPOS>BOND
     1     1     2   ar
     2     1     3   ar
     3     2     4   ar
     4     3     6   ar
     5     4     7   ar
     6     5     6   ar
     7     5     8   ar
     8     6     7   ar
     9     7    16   ar
    10     8     9    1
    11     8    16   ar
    12     9    17   am
    13     9    18    2
    14    10    11    1
    15    10    12    1
    16    11    13    1
    17    12    14    1
    18    13    15    1
    19    14    17    1
    20    15    19    1
    21     1    20    1
    22     2    21    1
    23     3    22    1
    24     4    23    1
    25     5    24    1
    26    10    25    1
    27    10    26    1
    28    11    27    1
    29    11    28    1
    30    12    29    1
    31    12    30    1
    32    13    31    1
    33    13    32    1
    34    14    33    1
    35    14    34    1
    36    15    35    1
    37    15    36    1
    38    16    37    1
    39    17    38    1
    40    19    39    1
