@<TRIPOS>MOLECULE
ChEBML52953
 59 62 0 0 0
SMALL
USER_CHARGES

@<TRIPOS>ATOM
      1 C          -2.3421    0.9857   -3.4828 C.ar    1  LIG1       -0.0418
      2 C         -10.3733   -5.1692    0.4901 C.ar    1  LIG1       -0.0383
      3 C          -1.7674   -0.1948   -3.0314 C.ar    1  LIG1       -0.0360
      4 C         -11.6887   -5.5223    0.6831 C.ar    1  LIG1       -0.0388
      5 C         -12.0817   -3.5160    1.9542 C.ar    1  LIG1       -0.0315
      6 C          -9.9793   -2.0266    2.1774 C.ar    1  LIG1       -0.0261
      7 C          -3.5256    1.4206   -2.9217 C.ar    1  LIG1        0.0292
      8 C         -10.7440   -3.1448    1.7650 C.ar    1  LIG1       -0.0003
      9 C          -9.8847   -3.9806    1.0262 C.ar    1  LIG1        0.0379
     10 C         -12.5450   -4.6984    1.4142 C.ar    1  LIG1        0.0335
     11 C          -2.4108   -0.9001   -2.0231 C.ar    1  LIG1        0.0672
     12 C          -8.7167   -2.1907    1.7032 C.ar    1  LIG1        0.0947
     13 C          -3.6092   -0.4011   -1.5065 C.ar    1  LIG1        0.1412
     14 C          -7.6015   -1.2539    1.9059 C.2     1  LIG1        0.2599
     15 C         -14.5367   -5.7418    0.6311 C.2     1  LIG1        0.3216
     16 C          -4.4765   -0.1520    0.6038 C.3     1  LIG1        0.0288
     17 C          -5.5935   -1.4504   -1.0274 C.3     1  LIG1        0.0288
     18 C          -5.1818   -0.8611    1.7644 C.3     1  LIG1        0.0303
     19 C          -6.3725   -2.2452    0.0255 C.3     1  LIG1        0.0303
     20 C           0.5743   -2.0141   -1.5229 C.3     1  LIG1       -0.0470
     21 C          -0.6283   -4.1693   -1.9113 C.3     1  LIG1       -0.0470
     22 C          -0.6642   -2.6583   -2.1489 C.3     1  LIG1        0.0142
     23 C         -15.9303   -6.2581    0.8803 C.3     1  LIG1        0.4689
     24 N          -4.1176    0.7311   -1.9637 N.ar    1  LIG1       -0.2394
     25 N          -8.6490   -3.3748    0.9953 N.ar    1  LIG1       -0.3101
     26 N          -4.2708   -1.0984   -0.4986 N.pl3   1  LIG1       -0.3112
     27 N          -6.4346   -1.4452    1.2591 N.am    1  LIG1       -0.2936
     28 N         -13.8820   -5.0736    1.6015 N.am    1  LIG1       -0.2776
     29 N          -1.8699   -2.0961   -1.5356 N.pl3   1  LIG1       -0.3393
     30 O          -7.7321   -0.3062    2.6574 O.2     1  LIG1       -0.2701
     31 O         -14.0043   -5.9273   -0.4428 O.2     1  LIG1       -0.2668
     32 F         -16.3972   -6.9119   -0.2650 F       1  LIG1       -0.1619
     33 F         -15.9103   -7.1551    1.9537 F       1  LIG1       -0.1619
     34 F         -16.7774   -5.1868    1.1837 F       1  LIG1       -0.1619
     35 H          -1.8672    1.5585   -4.2656 H       1  LIG1        0.0639
     36 H          -9.7191   -5.8144   -0.0774 H       1  LIG1        0.0643
     37 H          -0.8416   -0.5558   -3.4544 H       1  LIG1        0.0644
     38 H         -12.0618   -6.4456    0.2653 H       1  LIG1        0.0643
     39 H         -12.7466   -2.8803    2.5199 H       1  LIG1        0.0649
     40 H         -10.3358   -1.1930    2.7643 H       1  LIG1        0.0651
     41 H          -3.9741    2.3388   -3.2712 H       1  LIG1        0.0840
     42 H          -3.5120    0.2266    0.9420 H       1  LIG1        0.0485
     43 H          -5.0915    0.6791    0.2586 H       1  LIG1        0.0485
     44 H          -6.1403   -0.5400   -1.2729 H       1  LIG1        0.0485
     45 H          -5.4757   -2.0562   -1.9259 H       1  LIG1        0.0485
     46 H          -4.5405   -1.6506    2.1562 H       1  LIG1        0.0486
     47 H          -5.4037   -0.1424    2.5532 H       1  LIG1        0.0486
     48 H          -5.8631   -3.1881    0.2247 H       1  LIG1        0.0486
     49 H          -7.3819   -2.4419   -0.3357 H       1  LIG1        0.0486
     50 H           0.5488   -0.9376   -1.6921 H       1  LIG1        0.0249
     51 H           0.5851   -2.2132   -0.4512 H       1  LIG1        0.0249
     52 H           1.4714   -2.4324   -1.9792 H       1  LIG1        0.0249
     53 H          -0.6175   -4.3685   -0.8397 H       1  LIG1        0.0249
     54 H          -1.5106   -4.6283   -2.3573 H       1  LIG1        0.0249
     55 H           0.2688   -4.5877   -2.3676 H       1  LIG1        0.0249
     56 H          -0.6750   -2.4592   -3.2205 H       1  LIG1        0.0497
     57 H          -7.8600   -3.7232    0.5514 H       1  LIG1        0.1529
     58 H         -14.3364   -4.8526    2.4294 H       1  LIG1        0.1559
     59 H          -2.2937   -2.5522   -0.7917 H       1  LIG1        0.1469
@<TRIPOS>BOND
     1     1     3   ar
     2     1     7   ar
     3     2     4   ar
     4     2     9   ar
     5     3    11   ar
     6     4    10   ar
     7     5     8   ar
     8     5    10   ar
     9     6     8   ar
    10     6    12   ar
    11     7    24   ar
    12     8     9   ar
    13     9    25   ar
    14    10    28    1
    15    11    13   ar
    16    11    29    1
    17    12    14    1
    18    12    25   ar
    19    13    24   ar
    20    13    26    1
    21    14    27   am
    22    14    30    2
    23    15    23    1
    24    15    28   am
    25    15    31    2
    26    16    18    1
    27    16    26    1
    28    17    19    1
    29    17    26    1
    30    18    27    1
    31    19    27    1
    32    20    22    1
    33    21    22    1
    34    22    29    1
    35    23    32    1
    36    23    33    1
    37    23    34    1
    38     1    35    1
    39     2    36    1
    40     3    37    1
    41     4    38    1
    42     5    39    1
    43     6    40    1
    44     7    41    1
    45    16    42    1
    46    16    43    1
    47    17    44    1
    48    17    45    1
    49    18    46    1
    50    18    47    1
    51    19    48    1
    52    19    49    1
    53    20    50    1
    54    20    51    1
    55    20    52    1
    56    21    53    1
    57    21    54    1
    58    21    55    1
    59    22    56    1
    60    25    57    1
    61    28    58    1
    62    29    59    1
