@<TRIPOS>MOLECULE
ChEBML162550
 43 45 0 0 0
SMALL
USER_CHARGES

@<TRIPOS>ATOM
      1 C          -1.9600    1.3115   -2.9202 C.ar    1  LIG1       -0.0622
      2 C          -3.3194    1.6086   -3.0163 C.ar    1  LIG1       -0.0620
      3 C          -1.5497    0.0796   -2.4104 C.ar    1  LIG1       -0.0620
      4 C          -4.2686    0.6739   -2.6026 C.ar    1  LIG1       -0.0589
      5 C          -2.4989   -0.8551   -1.9967 C.ar    1  LIG1       -0.0589
      6 C         -10.6469   -5.3192    1.2486 C.ar    1  LIG1       -0.0387
      7 C         -11.9863   -5.4374    1.6305 C.ar    1  LIG1       -0.0416
      8 C         -12.0787   -3.0896    2.2440 C.ar    1  LIG1       -0.0343
      9 C          -9.8123   -1.8579    1.8554 C.ar    1  LIG1       -0.0262
     10 C         -10.7290   -2.9463    1.8654 C.ar    1  LIG1       -0.0007
     11 C          -3.8583   -0.5579   -2.0928 C.ar    1  LIG1       -0.0456
     12 C         -10.0456   -4.0622    1.3774 C.ar    1  LIG1        0.0379
     13 C         -12.6931   -4.3410    2.1207 C.ar    1  LIG1        0.0413
     14 C          -8.6124   -2.3255    1.3708 C.ar    1  LIG1        0.0945
     15 C          -7.3450   -1.5772    1.1696 C.2     1  LIG1        0.2578
     16 C          -4.2165   -2.0927    0.7171 C.2     1  LIG1        0.2323
     17 C          -3.1578   -1.8857    2.9653 C.3     1  LIG1       -0.0004
     18 C          -4.8847   -1.5696   -1.6449 C.3     1  LIG1       -0.0005
     19 C          -5.2601   -1.4183   -0.1662 C.3     1  LIG1        0.1036
     20 N          -8.7631   -3.6559    1.0851 N.ar    1  LIG1       -0.3101
     21 N          -6.5318   -2.0248    0.1376 N.am    1  LIG1       -0.2982
     22 N          -4.1071   -1.4757    1.9556 N.am    1  LIG1       -0.3169
     23 O          -7.0763   -0.6400    1.9167 O.2     1  LIG1       -0.2704
     24 O          -3.5328   -3.0418    0.3396 O.2     1  LIG1       -0.2755
     25 CL        -14.3435   -4.5258    2.5798 Cl      1  LIG1       -0.0843
     26 H          -1.2211    2.0388   -3.2436 H       1  LIG1        0.0622
     27 H          -3.6391    2.5673   -3.4143 H       1  LIG1        0.0623
     28 H          -0.4914   -0.1525   -2.3364 H       1  LIG1        0.0623
     29 H          -5.3256    0.9142   -2.6811 H       1  LIG1        0.0625
     30 H          -2.1699   -1.8122   -1.6007 H       1  LIG1        0.0625
     31 H         -10.0976   -6.1737    0.8676 H       1  LIG1        0.0643
     32 H         -12.4701   -6.4075    1.5376 H       1  LIG1        0.0639
     33 H         -12.6284   -2.2337    2.6268 H       1  LIG1        0.0645
     34 H         -10.0133   -0.8424    2.1698 H       1  LIG1        0.0651
     35 H          -3.6034   -2.6445    3.6139 H       1  LIG1        0.0430
     36 H          -2.8631   -1.0288    3.5773 H       1  LIG1        0.0430
     37 H          -2.2639   -2.3050    2.4957 H       1  LIG1        0.0430
     38 H          -5.7810   -1.4903   -2.2748 H       1  LIG1        0.0340
     39 H          -4.4849   -2.5738   -1.8382 H       1  LIG1        0.0340
     40 H          -5.3419   -0.3624    0.1172 H       1  LIG1        0.0608
     41 H          -8.0398   -4.2562    0.7134 H       1  LIG1        0.1529
     42 H          -6.7947   -2.8481   -0.3976 H       1  LIG1        0.1506
     43 H          -4.7253   -0.6969    2.1628 H       1  LIG1        0.1490
@<TRIPOS>BOND
     1     1     2   ar
     2     1     3   ar
     3     2     4   ar
     4     3     5   ar
     5     4    11   ar
     6     5    11   ar
     7     6     7   ar
     8     6    12   ar
     9     7    13   ar
    10     8    10   ar
    11     8    13   ar
    12     9    10   ar
    13     9    14   ar
    14    10    12   ar
    15    11    18    1
    16    12    20   ar
    17    13    25    1
    18    14    15    1
    19    14    20   ar
    20    15    21   am
    21    15    23    2
    22    16    19    1
    23    16    22   am
    24    16    24    2
    25    17    22    1
    26    18    19    1
    27    19    21    1
    28     1    26    1
    29     2    27    1
    30     3    28    1
    31     4    29    1
    32     5    30    1
    33     6    31    1
    34     7    32    1
    35     8    33    1
    36     9    34    1
    37    17    35    1
    38    17    36    1
    39    17    37    1
    40    18    38    1
    41    18    39    1
    42    19    40    1
    43    20    41    1
    44    21    42    1
    45    22    43    1
