@<TRIPOS>MOLECULE
ChEBML459958
 55 59 0 0 0
SMALL
USER_CHARGES

@<TRIPOS>ATOM
      1 C         -14.5532   -5.5434    0.3582 C.ar    1  LIG1       -0.0622
      2 C         -13.3512   -6.1853    0.5961 C.ar    1  LIG1       -0.0616
      3 C         -14.6354   -4.1649    0.4404 C.ar    1  LIG1       -0.0616
      4 C          -2.2904    1.9996   -4.9191 C.ar    1  LIG1       -0.0600
      5 C          -1.2056    1.1418   -4.8096 C.ar    1  LIG1       -0.0602
      6 C         -12.2264   -5.4529    0.9171 C.ar    1  LIG1       -0.0544
      7 C         -13.5185   -3.4226    0.7657 C.ar    1  LIG1       -0.0544
      8 C          -9.8839   -3.9159    1.5815 C.ar    1  LIG1       -0.0536
      9 C         -11.1801   -1.8813    1.4350 C.ar    1  LIG1       -0.0536
     10 C          -8.7647   -3.1812    1.9019 C.ar    1  LIG1       -0.0491
     11 C         -10.0635   -1.1451    1.7610 C.ar    1  LIG1       -0.0491
     12 C          -3.3409    1.9094   -4.0499 C.ar    1  LIG1       -0.0344
     13 C          -1.1670    0.1873   -3.8151 C.ar    1  LIG1       -0.0383
     14 C         -12.3033   -4.0636    1.0013 C.ar    1  LIG1       -0.0184
     15 C         -11.0985   -3.2712    1.3464 C.ar    1  LIG1       -0.0183
     16 C          -8.8455   -1.7893    1.9914 C.ar    1  LIG1        0.0373
     17 C          -3.3220    0.9525   -3.0322 C.ar    1  LIG1        0.0864
     18 C          -2.2218    0.0854   -2.9188 C.ar    1  LIG1        0.0597
     19 C          -3.6980   -0.3558   -1.3376 C.ar    1  LIG1        0.1044
     20 C          -7.6453   -0.9998    2.3357 C.2     1  LIG1        0.2455
     21 C          -4.5841    0.0689    0.9392 C.3     1  LIG1       -0.0275
     22 C          -5.7267   -1.5606   -0.5742 C.3     1  LIG1       -0.0275
     23 C          -5.2391   -0.5843    2.1603 C.3     1  LIG1        0.0151
     24 C          -6.3946   -2.2323    0.6298 C.3     1  LIG1        0.0151
     25 C          -4.3732   -0.9876   -0.1477 C.3     1  LIG1        0.0181
     26 C          -1.6350   -1.8062   -1.3290 C.3     1  LIG1        0.0064
     27 N          -4.1841    0.6300   -2.0339 N.ar    1  LIG1       -0.2354
     28 N          -2.4917   -0.7335   -1.8406 N.ar    1  LIG1       -0.2901
     29 N          -6.4698   -1.2623    1.7309 N.am    1  LIG1       -0.2978
     30 O          -7.7179   -0.1135    3.1645 O.2     1  LIG1       -0.2716
     31 H         -15.4307   -6.1206    0.1069 H       1  LIG1        0.0622
     32 H         -13.2927   -7.2617    0.5301 H       1  LIG1        0.0623
     33 H         -15.5764   -3.6691    0.2531 H       1  LIG1        0.0623
     34 H          -2.3073    2.7427   -5.7026 H       1  LIG1        0.0623
     35 H          -0.3856    1.2223   -5.5078 H       1  LIG1        0.0623
     36 H         -11.2884   -5.9552    1.1023 H       1  LIG1        0.0629
     37 H         -13.5848   -2.3467    0.8336 H       1  LIG1        0.0629
     38 H          -9.8216   -4.9919    1.5119 H       1  LIG1        0.0629
     39 H         -12.1209   -1.3832    1.2525 H       1  LIG1        0.0629
     40 H          -7.8245   -3.6805    2.0836 H       1  LIG1        0.0631
     41 H         -10.1280   -0.0695    1.8339 H       1  LIG1        0.0631
     42 H          -4.1797    2.5831   -4.1434 H       1  LIG1        0.0646
     43 H          -0.3199   -0.4775   -3.7338 H       1  LIG1        0.0643
     44 H          -3.6219    0.4932    1.2259 H       1  LIG1        0.0290
     45 H          -5.2316    0.8587    0.5581 H       1  LIG1        0.0290
     46 H          -6.3632   -0.7555   -0.9411 H       1  LIG1        0.0290
     47 H          -5.5776   -2.2961   -1.3647 H       1  LIG1        0.0290
     48 H          -4.5546   -1.3115    2.5969 H       1  LIG1        0.0470
     49 H          -5.4818    0.1808    2.8978 H       1  LIG1        0.0470
     50 H          -5.8043   -3.0939    0.9416 H       1  LIG1        0.0470
     51 H          -7.3996   -2.5545    0.3574 H       1  LIG1        0.0470
     52 H          -3.7461   -1.7893    0.2423 H       1  LIG1        0.0383
     53 H          -0.9570   -1.4023   -0.5772 H       1  LIG1        0.0436
     54 H          -2.2542   -2.5828   -0.8801 H       1  LIG1        0.0436
     55 H          -1.0565   -2.2315   -2.1491 H       1  LIG1        0.0436
@<TRIPOS>BOND
     1     1     2   ar
     2     1     3   ar
     3     2     6   ar
     4     3     7   ar
     5     4     5   ar
     6     4    12   ar
     7     5    13   ar
     8     6    14   ar
     9     7    14   ar
    10     8    10   ar
    11     8    15   ar
    12     9    11   ar
    13     9    15   ar
    14    10    16   ar
    15    11    16   ar
    16    12    17   ar
    17    13    18   ar
    18    14    15    1
    19    16    20    1
    20    17    18   ar
    21    17    27   ar
    22    18    28   ar
    23    19    25    1
    24    19    27   ar
    25    19    28   ar
    26    20    29   am
    27    20    30    2
    28    21    23    1
    29    21    25    1
    30    22    24    1
    31    22    25    1
    32    23    29    1
    33    24    29    1
    34    26    28    1
    35     1    31    1
    36     2    32    1
    37     3    33    1
    38     4    34    1
    39     5    35    1
    40     6    36    1
    41     7    37    1
    42     8    38    1
    43     9    39    1
    44    10    40    1
    45    11    41    1
    46    12    42    1
    47    13    43    1
    48    21    44    1
    49    21    45    1
    50    22    46    1
    51    22    47    1
    52    23    48    1
    53    23    49    1
    54    24    50    1
    55    24    51    1
    56    25    52    1
    57    26    53    1
    58    26    54    1
    59    26    55    1
