@<TRIPOS>MOLECULE
ChEBML345918
 35 37 0 0 0
SMALL
USER_CHARGES

@<TRIPOS>ATOM
      1 C          -2.7207    1.0355   -3.4089 C.ar    1  LIG1       -0.0621
      2 C         -12.4909   -4.8414    1.8660 C.ar    1  LIG1       -0.0615
      3 C         -11.8116   -5.4977    0.8416 C.ar    1  LIG1       -0.0603
      4 C          -2.3070    1.4262   -2.1353 C.ar    1  LIG1       -0.0604
      5 C          -3.5075   -0.1054   -3.5672 C.ar    1  LIG1       -0.0604
      6 C         -11.9435   -3.7074    2.4769 C.ar    1  LIG1       -0.0530
      7 C         -10.5671   -5.0437    0.3955 C.ar    1  LIG1       -0.0402
      8 C          -2.6800    0.6759   -1.0202 C.ar    1  LIG1       -0.0395
      9 C          -3.8804   -0.8556   -2.4520 C.ar    1  LIG1       -0.0395
     10 C          -9.8581   -2.1413    2.4252 C.ar    1  LIG1       -0.0262
     11 C         -10.6900   -3.2311    2.0441 C.ar    1  LIG1       -0.0022
     12 C         -10.0321   -3.9089    1.0155 C.ar    1  LIG1        0.0378
     13 C          -3.4667   -0.4650   -1.1785 C.ar    1  LIG1        0.0558
     14 C          -8.7320   -2.1781    1.6355 C.ar    1  LIG1        0.0961
     15 C          -7.6112   -1.2921    1.6477 C.2     1  LIG1        0.2743
     16 N          -8.8462   -3.2475    0.7883 N.ar    1  LIG1       -0.3100
     17 N          -6.5727   -1.5406    0.7338 N.am    1  LIG1       -0.2197
     18 N          -5.4081   -0.6801    0.6832 N.3     1  LIG1       -0.2075
     19 O          -7.5488   -0.3181    2.4387 O.2     1  LIG1       -0.2687
     20 O          -2.9535   -1.1831    1.2761 O.2     1  LIG1       -0.4750
     21 O          -4.2017   -2.7661   -0.2292 O.2     1  LIG1       -0.4750
     22 S          -3.9367   -1.4182    0.2359 S.O2    1  LIG1       -0.1526
     23 H          -2.4301    1.6189   -4.2777 H       1  LIG1        0.0622
     24 H         -13.4579   -5.2131    2.1951 H       1  LIG1        0.0623
     25 H         -12.2552   -6.3769    0.3816 H       1  LIG1        0.0623
     26 H          -1.6935    2.3138   -2.0118 H       1  LIG1        0.0623
     27 H          -3.8287   -0.4096   -4.5589 H       1  LIG1        0.0623
     28 H         -12.4842   -3.2050    3.2742 H       1  LIG1        0.0629
     29 H         -10.0381   -5.5551   -0.4016 H       1  LIG1        0.0642
     30 H          -2.3515    0.9886   -0.0327 H       1  LIG1        0.0642
     31 H          -4.4923   -1.7434   -2.5872 H       1  LIG1        0.0642
     32 H         -10.0655   -1.4107    3.1956 H       1  LIG1        0.0651
     33 H          -8.1607   -3.5161    0.0957 H       1  LIG1        0.1529
     34 H          -6.5823   -2.3212    0.0867 H       1  LIG1        0.1755
     35 H          -5.3949    0.1049    1.3458 H       1  LIG1        0.1892
@<TRIPOS>BOND
     1     1     4   ar
     2     1     5   ar
     3     2     3   ar
     4     2     6   ar
     5     3     7   ar
     6     4     8   ar
     7     5     9   ar
     8     6    11   ar
     9     7    12   ar
    10     8    13   ar
    11     9    13   ar
    12    10    11   ar
    13    10    14   ar
    14    11    12   ar
    15    12    16   ar
    16    13    22    1
    17    14    15    1
    18    14    16   ar
    19    15    17   am
    20    15    19    2
    21    17    18    1
    22    18    22    1
    23    20    22    2
    24    21    22    2
    25     1    23    1
    26     2    24    1
    27     3    25    1
    28     4    26    1
    29     5    27    1
    30     6    28    1
    31     7    29    1
    32     8    30    1
    33     9    31    1
    34    10    32    1
    35    16    33    1
    36    17    34    1
    37    18    35    1
