@<TRIPOS>MOLECULE
ChEBML852155
 43 47 0 0 0
SMALL
USER_CHARGES

@<TRIPOS>ATOM
      1 C          -8.6486    0.1712   -3.2911 C.ar    1  LIG1       -0.0622
      2 C         -12.3812   -4.9687    1.4729 C.ar    1  LIG1       -0.0615
      3 C          -7.7081   -0.8527   -3.4031 C.ar    1  LIG1       -0.0619
      4 C          -8.6968    0.9506   -2.1352 C.ar    1  LIG1       -0.0619
      5 C         -11.5355   -5.5694    0.5368 C.ar    1  LIG1       -0.0596
      6 C         -11.9883   -3.8167    2.1678 C.ar    1  LIG1       -0.0522
      7 C          -6.8159   -1.0975   -2.3593 C.ar    1  LIG1       -0.0568
      8 C          -7.8045    0.7059   -1.0914 C.ar    1  LIG1       -0.0568
      9 C         -10.2699   -5.0436    0.2605 C.ar    1  LIG1       -0.0306
     10 C          -9.9753   -2.1574    2.3775 C.ar    1  LIG1       -0.0173
     11 C          -1.9843   -0.6078   -2.7085 C.ar    1  LIG1        0.0364
     12 C          -2.5633    0.6185   -2.9595 C.ar    1  LIG1       -0.0029
     13 C         -10.7197   -3.2706    1.9056 C.ar    1  LIG1        0.0080
     14 C          -6.8640   -0.3181   -1.2033 C.ar    1  LIG1       -0.0223
     15 C          -9.9073   -3.8980    0.9666 C.ar    1  LIG1        0.0895
     16 C          -8.7758   -2.1795    1.7043 C.ar    1  LIG1        0.1305
     17 C          -3.7513   -0.8086   -1.4250 C.ar    1  LIG1        0.1671
     18 C          -5.7144   -2.6867    0.9679 C.2     1  LIG1        0.1447
     19 C          -6.4361   -1.5673    0.9087 C.2     1  LIG1        0.0631
     20 C          -4.5819   -2.5435    0.0303 C.2     1  LIG1        0.2757
     21 C          -7.6451   -1.3176    1.7669 C.2     1  LIG1        0.2170
     22 C          -5.9105   -0.5794   -0.0868 C.3     1  LIG1        0.0897
     23 N          -2.6639   -1.4272   -1.8285 N.ar    1  LIG1       -0.2336
     24 N          -4.7012   -1.2682   -0.5530 N.am    1  LIG1       -0.2322
     25 O          -3.7262   -3.3963   -0.1436 O.2     1  LIG1       -0.2688
     26 O          -7.5930   -0.3050    2.5102 O.2     1  LIG1       -0.2864
     27 O          -8.7246   -3.2316    0.8463 O.2     1  LIG1       -0.3056
     28 O          -5.9073   -3.7784    1.7549 O.2     1  LIG1       -0.3557
     29 S          -4.0192    0.7613   -2.0643 S.2     1  LIG1       -0.0603
     30 H          -9.3424    0.3625   -4.1045 H       1  LIG1        0.0622
     31 H         -13.3599   -5.4007    1.6660 H       1  LIG1        0.0623
     32 H          -7.6697   -1.4590   -4.3034 H       1  LIG1        0.0623
     33 H          -9.4282    1.7487   -2.0481 H       1  LIG1        0.0623
     34 H         -11.8671   -6.4624    0.0129 H       1  LIG1        0.0623
     35 H         -12.6565   -3.3608    2.8922 H       1  LIG1        0.0630
     36 H          -6.0866   -1.8975   -2.4552 H       1  LIG1        0.0626
     37 H          -7.8495    1.3181   -0.1946 H       1  LIG1        0.0626
     38 H          -9.6094   -5.5037   -0.4646 H       1  LIG1        0.0650
     39 H         -10.2800   -1.4314    3.1184 H       1  LIG1        0.0659
     40 H          -1.0591   -0.9568   -3.1466 H       1  LIG1        0.0846
     41 H          -2.2136    1.4099   -3.6066 H       1  LIG1        0.0718
     42 H          -5.6160    0.3592    0.3943 H       1  LIG1        0.0616
     43 H          -5.2277   -4.4499    1.5897 H       1  LIG1        0.2184
@<TRIPOS>BOND
     1     1     3   ar
     2     1     4   ar
     3     2     5   ar
     4     2     6   ar
     5     3     7   ar
     6     4     8   ar
     7     5     9   ar
     8     6    13   ar
     9     7    14   ar
    10     8    14   ar
    11     9    15   ar
    12    10    13   ar
    13    10    16   ar
    14    11    12   ar
    15    11    23   ar
    16    12    29   ar
    17    13    15   ar
    18    14    22    1
    19    15    27   ar
    20    16    21    1
    21    16    27   ar
    22    17    23   ar
    23    17    24    1
    24    17    29   ar
    25    18    19    2
    26    18    20    1
    27    18    28    1
    28    19    21    1
    29    19    22    1
    30    20    24   am
    31    20    25    2
    32    21    26    2
    33    22    24    1
    34     1    30    1
    35     2    31    1
    36     3    32    1
    37     4    33    1
    38     5    34    1
    39     6    35    1
    40     7    36    1
    41     8    37    1
    42     9    38    1
    43    10    39    1
    44    11    40    1
    45    12    41    1
    46    22    42    1
    47    28    43    1
