@<TRIPOS>MOLECULE
ChEBML311491
 47 50 0 0 0
SMALL
USER_CHARGES

@<TRIPOS>ATOM
      1 C          -0.5817   -2.2794   -3.6433 C.ar    1  LIG1       -0.0615
      2 C          -1.3888   -3.0320   -2.7922 C.ar    1  LIG1       -0.0615
      3 C          -0.8699   -0.9332   -3.8717 C.ar    1  LIG1       -0.0526
      4 C          -2.4871   -2.4413   -2.1660 C.ar    1  LIG1       -0.0507
      5 C         -11.6322   -5.3508    0.8034 C.ar    1  LIG1       -0.0482
      6 C         -11.9770   -2.9629    0.9301 C.ar    1  LIG1       -0.0482
      7 C         -10.2659   -5.1647    1.0141 C.ar    1  LIG1       -0.0401
      8 C         -10.6108   -2.7768    1.1408 C.ar    1  LIG1       -0.0401
      9 C          -2.3117    1.0065   -3.4332 C.ar    1  LIG1        0.0576
     10 C          -1.9733   -0.3292   -3.2460 C.ar    1  LIG1        0.0054
     11 C          -2.7857   -1.0867   -2.3892 C.ar    1  LIG1        0.0255
     12 C         -12.4877   -4.2499    0.7614 C.ar    1  LIG1        0.0556
     13 C          -9.7552   -3.8777    1.1828 C.ar    1  LIG1        0.0340
     14 C          -3.8650   -0.4419   -1.7951 C.ar    1  LIG1        0.1508
     15 C          -7.8666   -2.4231    1.6381 C.2     1  LIG1        0.3050
     16 C          -4.8268   -0.6850    0.4381 C.3     1  LIG1        0.0289
     17 C          -5.7783   -1.9269   -1.5289 C.3     1  LIG1        0.0289
     18 C          -6.2941   -0.6728    0.8612 C.3     1  LIG1        0.0315
     19 C          -6.4687   -2.7722   -0.4576 C.3     1  LIG1        0.0315
     20 C         -13.9485   -4.4490    0.5361 C.3     1  LIG1        0.4160
     21 N          -3.3707    1.5938   -2.8351 N.ar    1  LIG1       -0.1565
     22 N          -4.1579    0.8597   -2.0051 N.ar    1  LIG1       -0.1346
     23 N          -4.6902   -1.1369   -0.9492 N.pl3   1  LIG1       -0.3107
     24 N          -6.9128   -1.9868    0.6993 N.am    1  LIG1       -0.2824
     25 N          -8.3844   -3.6907    1.3944 N.am    1  LIG1       -0.2691
     26 O          -8.2116   -1.7388    2.6070 O.2     1  LIG1       -0.2537
     27 F         -14.3061   -5.7590    0.3879 F       1  LIG1       -0.1661
     28 F         -14.7278   -3.9805    1.5555 F       1  LIG1       -0.1661
     29 F         -14.3974   -3.8178   -0.5877 F       1  LIG1       -0.1661
     30 H           0.2732   -2.7407   -4.1291 H       1  LIG1        0.0623
     31 H          -1.1631   -4.0799   -2.6159 H       1  LIG1        0.0623
     32 H          -0.2300   -0.3603   -4.5387 H       1  LIG1        0.0630
     33 H          -3.0942   -3.0594   -1.5093 H       1  LIG1        0.0630
     34 H         -12.0212   -6.3570    0.6707 H       1  LIG1        0.0629
     35 H         -12.6364   -2.0994    0.8981 H       1  LIG1        0.0629
     36 H          -9.6085   -6.0299    1.0453 H       1  LIG1        0.0642
     37 H         -10.2232   -1.7693    1.2700 H       1  LIG1        0.0642
     38 H          -1.7355    1.6592   -4.0811 H       1  LIG1        0.0866
     39 H          -4.4095    0.3213    0.5676 H       1  LIG1        0.0485
     40 H          -4.2547   -1.3628    1.0829 H       1  LIG1        0.0485
     41 H          -5.3902   -2.5874   -2.3134 H       1  LIG1        0.0485
     42 H          -6.5086   -1.2519   -1.9935 H       1  LIG1        0.0485
     43 H          -6.3787   -0.3409    1.9013 H       1  LIG1        0.0486
     44 H          -6.8684    0.0298    0.2450 H       1  LIG1        0.0486
     45 H          -7.3283   -3.2840   -0.9028 H       1  LIG1        0.0486
     46 H          -5.7808   -3.5364   -0.0760 H       1  LIG1        0.0486
     47 H          -7.8062   -4.5226    1.4165 H       1  LIG1        0.1573
@<TRIPOS>BOND
     1     1     2   ar
     2     1     3   ar
     3     2     4   ar
     4     3    10   ar
     5     4    11   ar
     6     5     7   ar
     7     5    12   ar
     8     6     8   ar
     9     6    12   ar
    10     7    13   ar
    11     8    13   ar
    12     9    10   ar
    13     9    21   ar
    14    10    11   ar
    15    11    14   ar
    16    12    20    1
    17    13    25    1
    18    14    22   ar
    19    14    23    1
    20    15    24   am
    21    15    25   am
    22    15    26    2
    23    16    18    1
    24    16    23    1
    25    17    19    1
    26    17    23    1
    27    18    24    1
    28    19    24    1
    29    20    27    1
    30    20    28    1
    31    20    29    1
    32    21    22   ar
    33     1    30    1
    34     2    31    1
    35     3    32    1
    36     4    33    1
    37     5    34    1
    38     6    35    1
    39     7    36    1
    40     8    37    1
    41     9    38    1
    42    16    39    1
    43    16    40    1
    44    17    41    1
    45    17    42    1
    46    18    43    1
    47    18    44    1
    48    19    45    1
    49    19    46    1
    50    25    47    1
