@<TRIPOS>MOLECULE
ChEBML596931
 41 44 0 0 0
SMALL
USER_CHARGES

@<TRIPOS>ATOM
      1 C         -11.8286   -2.5340    2.1995 C.ar    1  LIG1       -0.0522
      2 C          -6.5675   -0.5277    1.5636 C.ar    1  LIG1       -0.0505
      3 C          -6.2629   -2.2039   -0.1496 C.ar    1  LIG1       -0.0505
      4 C         -12.5615   -3.7264    2.1999 C.ar    1  LIG1       -0.0490
      5 C          -5.3117    0.0026    1.2681 C.ar    1  LIG1       -0.0306
      6 C          -5.0071   -1.6735   -0.4451 C.ar    1  LIG1       -0.0306
      7 C          -3.9040    0.6861   -2.2359 C.ar    1  LIG1       -0.0283
      8 C          -1.7233   -0.2696   -1.8258 C.ar    1  LIG1       -0.0283
      9 C          -3.5745    0.8613   -3.5798 C.ar    1  LIG1       -0.0237
     10 C          -1.3938   -0.0945   -3.1699 C.ar    1  LIG1       -0.0237
     11 C          -9.4737   -1.5613    1.6407 C.ar    1  LIG1       -0.0310
     12 C         -10.6504   -4.9637    1.3506 C.ar    1  LIG1       -0.0276
     13 C         -10.4870   -2.5521    1.7694 C.ar    1  LIG1       -0.0023
     14 C          -7.0431   -1.6309    0.8548 C.ar    1  LIG1       -0.0040
     15 C         -11.9794   -4.9214    1.7815 C.ar    1  LIG1        0.0387
     16 C          -9.9299   -3.7641    1.3557 C.ar    1  LIG1        0.0385
     17 C          -4.5315   -0.5704    0.2637 C.ar    1  LIG1        0.0821
     18 C          -2.9784    0.1207   -1.3588 C.ar    1  LIG1        0.0822
     19 C          -2.3194    0.4710   -4.0468 C.ar    1  LIG1        0.1229
     20 C          -8.3421   -2.1794    1.1605 C.ar    1  LIG1        0.0383
     21 C         -12.7656   -6.1457    1.7925 C.2     1  LIG1        0.2404
     22 N          -8.6273   -3.5078    0.9915 N.ar    1  LIG1       -0.3139
     23 N         -14.0847   -6.0636    2.2280 N.am    1  LIG1       -0.3251
     24 O         -12.2755   -7.2332    1.4421 O.2     1  LIG1       -0.2721
     25 O          -3.3060   -0.0530   -0.0246 O.3     1  LIG1       -0.3104
     26 F          -2.0028    0.6404   -5.3373 F       1  LIG1       -0.2069
     27 H         -12.2947   -1.6095    2.5281 H       1  LIG1        0.0630
     28 H          -7.1637   -0.0698    2.3493 H       1  LIG1        0.0630
     29 H          -6.6196   -3.0641   -0.7111 H       1  LIG1        0.0630
     30 H         -13.5968   -3.7064    2.5330 H       1  LIG1        0.0631
     31 H          -4.9465    0.8620    1.8237 H       1  LIG1        0.0650
     32 H          -4.4038   -2.1242   -1.2286 H       1  LIG1        0.0650
     33 H          -4.8832    0.9921   -1.8782 H       1  LIG1        0.0651
     34 H          -0.9983   -0.7110   -1.1473 H       1  LIG1        0.0651
     35 H          -4.2944    1.3020   -4.2632 H       1  LIG1        0.0654
     36 H          -0.4165   -0.3971   -3.5336 H       1  LIG1        0.0654
     37 H          -9.5683   -0.5093    1.8760 H       1  LIG1        0.0650
     38 H         -10.1891   -5.8902    1.0230 H       1  LIG1        0.0651
     39 H          -7.9792   -4.2045    0.6495 H       1  LIG1        0.1528
     40 H         -14.4554   -5.1662    2.5210 H       1  LIG1        0.1458
     41 H         -14.6838   -6.8822    2.2587 H       1  LIG1        0.1458
@<TRIPOS>BOND
     1     1     4   ar
     2     1    13   ar
     3     2     5   ar
     4     2    14   ar
     5     3     6   ar
     6     3    14   ar
     7     4    15   ar
     8     5    17   ar
     9     6    17   ar
    10     7     9   ar
    11     7    18   ar
    12     8    10   ar
    13     8    18   ar
    14     9    19   ar
    15    10    19   ar
    16    11    13   ar
    17    11    20   ar
    18    12    15   ar
    19    12    16   ar
    20    13    16   ar
    21    14    20    1
    22    15    21    1
    23    16    22   ar
    24    17    25    1
    25    18    25    1
    26    19    26    1
    27    20    22   ar
    28    21    23   am
    29    21    24    2
    30     1    27    1
    31     2    28    1
    32     3    29    1
    33     4    30    1
    34     5    31    1
    35     6    32    1
    36     7    33    1
    37     8    34    1
    38     9    35    1
    39    10    36    1
    40    11    37    1
    41    12    38    1
    42    22    39    1
    43    23    40    1
    44    23    41    1
