@<TRIPOS>MOLECULE
ChEBML736577
 53 57 0 0 0
SMALL
USER_CHARGES

@<TRIPOS>ATOM
      1 C          -2.8787    1.5567   -2.5048 C.ar    1  LIG1       -0.0598
      2 C          -2.4642    0.7853   -3.5753 C.ar    1  LIG1       -0.0499
      3 C         -11.8800   -6.4887   -0.3693 C.ar    1  LIG1       -0.0331
      4 C          -3.4868    0.9615   -1.4173 C.ar    1  LIG1       -0.0409
      5 C         -13.1696   -6.9157   -0.3235 C.ar    1  LIG1       -0.0296
      6 C         -12.1219   -3.4231    1.7145 C.ar    1  LIG1       -0.0411
      7 C         -13.8171   -5.0604    1.0582 C.ar    1  LIG1       -0.0224
      8 C         -10.0395   -1.8965    2.1911 C.ar    1  LIG1       -0.0141
      9 C          -3.2591   -1.1864   -2.4733 C.ar    1  LIG1       -0.0287
     10 C         -12.4904   -4.5948    1.0347 C.ar    1  LIG1        0.0036
     11 C         -10.7948   -3.0228    1.6408 C.ar    1  LIG1        0.0281
     12 C          -2.6570   -0.5837   -3.5606 C.ar    1  LIG1        0.0573
     13 C         -11.5046   -5.3141    0.3099 C.ar    1  LIG1        0.0735
     14 C          -3.6817   -0.4140   -1.3992 C.ar    1  LIG1        0.0292
     15 C         -14.1409   -6.2066    0.3914 C.ar    1  LIG1        0.0753
     16 C          -8.7626   -2.0556    1.7608 C.ar    1  LIG1        0.1473
     17 C          -9.8608   -3.7881    0.8983 C.ar    1  LIG1        0.1801
     18 C          -7.6485   -1.1505    2.0748 C.2     1  LIG1        0.2695
     19 C          -4.6176    0.0537    0.6471 C.3     1  LIG1        0.0274
     20 C          -5.5659   -1.5758   -0.7812 C.3     1  LIG1        0.0274
     21 C          -5.2761   -0.5435    1.8949 C.3     1  LIG1        0.0303
     22 C          -6.2853   -2.2851    0.3765 C.3     1  LIG1        0.0303
     23 C         -15.4506   -7.8603   -0.3584 C.3     1  LIG1        0.0422
     24 C          -2.2046   -1.4200   -4.7298 C.3     1  LIG1        0.4160
     25 N         -10.2405   -4.8835    0.2724 N.ar    1  LIG1       -0.2233
     26 N          -4.2960   -1.0194   -0.3005 N.pl3   1  LIG1       -0.3276
     27 N          -6.4543   -1.3178    1.4728 N.am    1  LIG1       -0.2929
     28 O          -7.8039   -0.2501    2.8780 O.2     1  LIG1       -0.2693
     29 O          -8.6665   -3.1683    1.0026 O.2     1  LIG1       -0.2854
     30 O         -15.4217   -6.6608    0.4176 O.3     1  LIG1       -0.3493
     31 F          -1.6241   -0.5934   -5.6977 F       1  LIG1       -0.1661
     32 F          -1.2643   -2.3601   -4.2947 F       1  LIG1       -0.1661
     33 F          -3.3056   -2.0832   -5.2826 F       1  LIG1       -0.1661
     34 H          -2.7270    2.6259   -2.5195 H       1  LIG1        0.0623
     35 H          -1.9892    1.2535   -4.4248 H       1  LIG1        0.0629
     36 H         -11.1441   -7.0500   -0.9259 H       1  LIG1        0.0646
     37 H          -3.8109    1.5645   -0.5820 H       1  LIG1        0.0642
     38 H         -13.4492   -7.8179   -0.8475 H       1  LIG1        0.0651
     39 H         -12.8468   -2.8521    2.2757 H       1  LIG1        0.0637
     40 H         -14.5742   -4.5168    1.6037 H       1  LIG1        0.0657
     41 H         -10.4210   -1.1005    2.8132 H       1  LIG1        0.0660
     42 H          -3.4050   -2.2564   -2.4604 H       1  LIG1        0.0648
     43 H          -5.3031    0.7593    0.1775 H       1  LIG1        0.0485
     44 H          -3.7024    0.5724    0.9326 H       1  LIG1        0.0485
     45 H          -6.1933   -0.7708   -1.1635 H       1  LIG1        0.0485
     46 H          -5.3695   -2.2925   -1.5785 H       1  LIG1        0.0485
     47 H          -5.5846    0.2578    2.5663 H       1  LIG1        0.0486
     48 H          -4.5696   -1.1987    2.4047 H       1  LIG1        0.0486
     49 H          -5.6889   -3.1298    0.7210 H       1  LIG1        0.0486
     50 H          -7.2618   -2.6362    0.0431 H       1  LIG1        0.0486
     51 H         -15.1390   -7.6401   -1.3795 H       1  LIG1        0.0535
     52 H         -14.7715   -8.5923    0.0788 H       1  LIG1        0.0535
     53 H         -16.4632   -8.2635   -0.3664 H       1  LIG1        0.0535
@<TRIPOS>BOND
     1     1     2   ar
     2     1     4   ar
     3     2    12   ar
     4     3     5   ar
     5     3    13   ar
     6     4    14   ar
     7     5    15   ar
     8     6    10   ar
     9     6    11   ar
    10     7    10   ar
    11     7    15   ar
    12     8    11   ar
    13     8    16   ar
    14     9    12   ar
    15     9    14   ar
    16    10    13   ar
    17    11    17   ar
    18    12    24    1
    19    13    25   ar
    20    14    26    1
    21    15    30    1
    22    16    18    1
    23    16    29   ar
    24    17    25   ar
    25    17    29   ar
    26    18    27   am
    27    18    28    2
    28    19    21    1
    29    19    26    1
    30    20    22    1
    31    20    26    1
    32    21    27    1
    33    22    27    1
    34    23    30    1
    35    24    31    1
    36    24    32    1
    37    24    33    1
    38     1    34    1
    39     2    35    1
    40     3    36    1
    41     4    37    1
    42     5    38    1
    43     6    39    1
    44     7    40    1
    45     8    41    1
    46     9    42    1
    47    19    43    1
    48    19    44    1
    49    20    45    1
    50    20    46    1
    51    21    47    1
    52    21    48    1
    53    22    49    1
    54    22    50    1
    55    23    51    1
    56    23    52    1
    57    23    53    1
