@<TRIPOS>MOLECULE
ChEBML995326
 44 46 0 0 0
SMALL
USER_CHARGES

@<TRIPOS>ATOM
      1 C          -1.8190    0.5725   -3.8258 C.ar    1  LIG1       -0.0291
      2 C          -2.4798    1.6561   -3.2474 C.ar    1  LIG1       -0.0273
      3 C          -8.6699   -3.4697    1.0280 C.ar    1  LIG1       -0.0380
      4 C          -2.6967   -0.8805   -2.1066 C.ar    1  LIG1       -0.0076
      5 C          -9.9580   -4.0411    1.0431 C.ar    1  LIG1       -0.0368
      6 C          -3.3574    0.2032   -1.5281 C.ar    1  LIG1        0.0658
      7 C          -1.9275   -0.6959   -3.2555 C.ar    1  LIG1        0.0766
      8 C          -3.2489    1.4716   -2.0984 C.ar    1  LIG1        0.0961
      9 C          -8.6628   -2.2684    1.7195 C.ar    1  LIG1        0.0847
     10 C         -10.8587   -3.2729    1.7280 C.ar    1  LIG1       -0.0067
     11 C          -7.5746   -1.3714    1.9416 C.2     1  LIG1        0.3000
     12 C          -4.3378   -1.1917    0.3208 C.2     1  LIG1        0.2427
     13 C         -10.5956   -5.2684    0.5086 C.3     1  LIG1       -0.0267
     14 C         -12.2266   -3.8390    1.7689 C.3     1  LIG1       -0.0209
     15 C         -12.1157   -4.9526    0.6812 C.3     1  LIG1       -0.0446
     16 C          -1.4358   -3.0216   -3.1853 C.3     1  LIG1        0.0422
     17 C          -3.1708    3.2897   -0.5676 C.3     1  LIG1        0.0423
     18 C          -5.2333   -0.9964    1.5250 C.3     1  LIG1        0.1336
     19 N          -4.1333    0.0005   -0.3622 N.am    1  LIG1       -0.2811
     20 O          -7.6387   -0.2949    2.5804 O.2     1  LIG1       -0.2600
     21 O          -3.8941   -2.3030    0.0484 O.2     1  LIG1       -0.2746
     22 O          -1.2819   -1.7530   -3.8198 O.3     1  LIG1       -0.3492
     23 O          -3.8869    2.5436   -1.5493 O.3     1  LIG1       -0.3473
     24 O          -6.4002   -1.8113    1.3700 O.3     1  LIG1       -0.3019
     25 S         -10.2168   -1.8682    2.3686 S.2     1  LIG1       -0.0879
     26 H          -1.2215    0.7231   -4.7207 H       1  LIG1        0.0651
     27 H          -2.3909    2.6416   -3.6971 H       1  LIG1        0.0652
     28 H          -7.7987   -3.8964    0.5476 H       1  LIG1        0.0640
     29 H          -2.7770   -1.8714   -1.6655 H       1  LIG1        0.0671
     30 H         -10.3468   -5.4547   -0.5398 H       1  LIG1        0.0316
     31 H         -10.3153   -6.1394    1.1102 H       1  LIG1        0.0316
     32 H         -12.4370   -4.2796    2.7487 H       1  LIG1        0.0322
     33 H         -13.0045   -3.1138    1.5157 H       1  LIG1        0.0322
     34 H         -12.5078   -4.5633   -0.2678 H       1  LIG1        0.0273
     35 H         -12.6987   -5.8430    0.9364 H       1  LIG1        0.0273
     36 H          -0.8698   -3.7766   -3.7364 H       1  LIG1        0.0535
     37 H          -2.4947   -3.2913   -3.1598 H       1  LIG1        0.0535
     38 H          -1.0536   -2.9568   -2.1637 H       1  LIG1        0.0535
     39 H          -3.7919    4.1154   -0.2117 H       1  LIG1        0.0535
     40 H          -2.2471    3.6769   -1.0051 H       1  LIG1        0.0535
     41 H          -2.9271    2.6325    0.2705 H       1  LIG1        0.0535
     42 H          -4.7031   -1.2819    2.4386 H       1  LIG1        0.0675
     43 H          -5.5358    0.0513    1.6145 H       1  LIG1        0.0675
     44 H          -4.5947    0.8232    0.0201 H       1  LIG1        0.1558
@<TRIPOS>BOND
     1     1     2   ar
     2     1     7   ar
     3     2     8   ar
     4     3     5   ar
     5     3     9   ar
     6     4     6   ar
     7     4     7   ar
     8     5    10   ar
     9     5    13    1
    10     6     8   ar
    11     6    19    1
    12     7    22    1
    13     8    23    1
    14     9    11    1
    15     9    25   ar
    16    10    14    1
    17    10    25   ar
    18    11    20    2
    19    11    24    1
    20    12    18    1
    21    12    19   am
    22    12    21    2
    23    13    15    1
    24    14    15    1
    25    16    22    1
    26    17    23    1
    27    18    24    1
    28     1    26    1
    29     2    27    1
    30     3    28    1
    31     4    29    1
    32    13    30    1
    33    13    31    1
    34    14    32    1
    35    14    33    1
    36    15    34    1
    37    15    35    1
    38    16    36    1
    39    16    37    1
    40    16    38    1
    41    17    39    1
    42    17    40    1
    43    17    41    1
    44    18    42    1
    45    18    43    1
    46    19    44    1
