@<TRIPOS>MOLECULE
ChEBML242791
 45 49 0 0 0
SMALL
USER_CHARGES

@<TRIPOS>ATOM
      1 C         -11.9722   -5.5419    1.7321 C.ar    1  LIG1       -0.0596
      2 C          -3.4095    0.9270   -3.3537 C.ar    1  LIG1       -0.0468
      3 C          -2.5141   -0.1668   -3.2580 C.ar    1  LIG1       -0.0468
      4 C          -6.7043   -1.0826    2.0051 C.ar    1  LIG1       -0.0527
      5 C          -6.7829   -1.8685   -0.2782 C.ar    1  LIG1       -0.0527
      6 C         -12.6878   -4.4192    2.1437 C.ar    1  LIG1       -0.0489
      7 C          -5.4883   -0.4504    1.7455 C.ar    1  LIG1       -0.0568
      8 C          -5.5670   -1.2363   -0.5377 C.ar    1  LIG1       -0.0568
      9 C         -10.6337   -5.4407    1.3568 C.ar    1  LIG1       -0.0401
     10 C          -3.9108    1.1598   -2.0920 C.ar    1  LIG1       -0.0043
     11 C          -2.4956   -0.5691   -1.9407 C.ar    1  LIG1       -0.0043
     12 C         -10.7374   -3.0236    1.7916 C.ar    1  LIG1        0.0134
     13 C          -7.3517   -1.7917    0.9932 C.ar    1  LIG1       -0.0039
     14 C         -12.0899   -3.1440    2.1818 C.ar    1  LIG1        0.0465
     15 C          -9.8202   -1.9324    1.6798 C.ar    1  LIG1       -0.0146
     16 C          -4.9197   -0.5273    0.4742 C.ar    1  LIG1       -0.0303
     17 C         -10.0448   -4.1733    1.3993 C.ar    1  LIG1        0.0388
     18 C          -8.6112   -2.4466    1.2620 C.ar    1  LIG1        0.0416
     19 C         -12.8918   -2.0117    2.7090 C.2     1  LIG1        0.2436
     20 C         -10.1423   -0.5028    1.9281 C.3     1  LIG1       -0.0096
     21 C         -11.5657   -0.1818    1.4929 C.3     1  LIG1        0.0154
     22 C          -3.6193    0.1483    0.1970 C.3     1  LIG1        0.0406
     23 N          -8.7576   -3.7947    1.0956 N.ar    1  LIG1       -0.3137
     24 N          -3.3485    0.2442   -1.2412 N.ar    1  LIG1       -0.3091
     25 N         -12.5612   -0.7010    2.4194 N.am    1  LIG1       -0.3110
     26 O         -13.8586   -2.2712    3.4286 O.2     1  LIG1       -0.2718
     27 H         -12.4616   -6.5123    1.7118 H       1  LIG1        0.0623
     28 H          -3.6628    1.4842   -4.2446 H       1  LIG1        0.0636
     29 H          -1.9445   -0.6131   -4.0610 H       1  LIG1        0.0636
     30 H          -7.1346   -1.0137    3.0013 H       1  LIG1        0.0630
     31 H          -7.2755   -2.4171   -1.0775 H       1  LIG1        0.0630
     32 H         -13.7262   -4.5551    2.4384 H       1  LIG1        0.0631
     33 H          -4.9908    0.0996    2.5400 H       1  LIG1        0.0626
     34 H          -5.1316   -1.3016   -1.5313 H       1  LIG1        0.0626
     35 H         -10.0727   -6.3153    1.0452 H       1  LIG1        0.0642
     36 H          -4.6170    1.8964   -1.7330 H       1  LIG1        0.0791
     37 H          -1.9490   -1.3618   -1.4476 H       1  LIG1        0.0791
     38 H          -9.9985   -0.2726    2.9904 H       1  LIG1        0.0333
     39 H          -9.4568    0.1357    1.3585 H       1  LIG1        0.0333
     40 H         -11.7056    0.9044    1.4687 H       1  LIG1        0.0470
     41 H         -11.7897   -0.5754    0.4943 H       1  LIG1        0.0470
     42 H          -3.5920    1.1693    0.6100 H       1  LIG1        0.0523
     43 H          -2.7737   -0.3850    0.6600 H       1  LIG1        0.0523
     44 H          -8.0319   -4.4271    0.7863 H       1  LIG1        0.1528
     45 H         -13.0898    0.0021    2.9271 H       1  LIG1        0.1497
@<TRIPOS>BOND
     1     1     6   ar
     2     1     9   ar
     3     2     3   ar
     4     2    10   ar
     5     3    11   ar
     6     4     7   ar
     7     4    13   ar
     8     5     8   ar
     9     5    13   ar
    10     6    14   ar
    11     7    16   ar
    12     8    16   ar
    13     9    17   ar
    14    10    24   ar
    15    11    24   ar
    16    12    14   ar
    17    12    15   ar
    18    12    17   ar
    19    13    18    1
    20    14    19    1
    21    15    18   ar
    22    15    20    1
    23    16    22    1
    24    17    23   ar
    25    18    23   ar
    26    19    25   am
    27    19    26    2
    28    20    21    1
    29    21    25    1
    30    22    24    1
    31     1    27    1
    32     2    28    1
    33     3    29    1
    34     4    30    1
    35     5    31    1
    36     6    32    1
    37     7    33    1
    38     8    34    1
    39     9    35    1
    40    10    36    1
    41    11    37    1
    42    20    38    1
    43    20    39    1
    44    21    40    1
    45    21    41    1
    46    22    42    1
    47    22    43    1
    48    23    44    1
    49    25    45    1
