@<TRIPOS>MOLECULE
ChEBML52468
 59 62 0 0 0
SMALL
USER_CHARGES

@<TRIPOS>ATOM
      1 C          -2.3351    0.9937   -3.4688 C.ar    1  LIG1       -0.0418
      2 C         -11.6924   -5.5135    0.6688 C.ar    1  LIG1       -0.0743
      3 C         -10.3754   -5.1632    0.4804 C.ar    1  LIG1       -0.0414
      4 C          -1.7894   -0.2147   -3.0570 C.ar    1  LIG1       -0.0360
      5 C         -12.0839   -3.5089    1.9431 C.ar    1  LIG1       -0.0670
      6 C          -9.9784   -2.0252    2.1753 C.ar    1  LIG1       -0.0263
      7 C          -3.4919    1.4526   -2.8723 C.ar    1  LIG1        0.0292
      8 C         -10.7446   -3.1404    1.7581 C.ar    1  LIG1       -0.0034
      9 C         -12.5489   -4.6891    1.3995 C.ar    1  LIG1       -0.1255
     10 C          -9.8856   -3.9768    1.0197 C.ar    1  LIG1        0.0377
     11 C          -2.4337   -0.9229   -2.0513 C.ar    1  LIG1        0.0672
     12 C          -8.7146   -2.1913    1.7041 C.ar    1  LIG1        0.0947
     13 C          -3.6042   -0.3983   -1.4975 C.ar    1  LIG1        0.1412
     14 C          -7.5980   -1.2572    1.9117 C.2     1  LIG1        0.2599
     15 C          -4.4719   -0.1541    0.6132 C.3     1  LIG1        0.0288
     16 C          -5.5893   -1.4475   -1.0216 C.3     1  LIG1        0.0288
     17 C          -5.1780   -0.8658    1.7717 C.3     1  LIG1        0.0303
     18 C          -6.3691   -2.2446    0.0290 C.3     1  LIG1        0.0303
     19 C           0.5219   -2.1669   -1.7070 C.3     1  LIG1       -0.0470
     20 C          -0.7882   -4.2649   -2.0601 C.3     1  LIG1       -0.0470
     21 C          -0.7712   -2.7508   -2.2796 C.3     1  LIG1        0.0142
     22 C         -16.1898   -6.5003    1.4362 C.3     1  LIG1        0.4647
     23 N          -4.0855    0.7598   -1.9175 N.ar    1  LIG1       -0.2394
     24 N         -13.8856   -5.0611    1.5822 N.pl3   1  LIG1       -0.5930
     25 N          -8.6476   -3.3741    0.9944 N.ar    1  LIG1       -0.3101
     26 N          -4.2666   -1.0978   -0.4915 N.pl3   1  LIG1       -0.3112
     27 N          -6.4311   -1.4477    1.2648 N.am    1  LIG1       -0.2936
     28 N          -1.9214   -2.1464   -1.6031 N.pl3   1  LIG1       -0.3393
     29 O          -7.7275   -0.3128    2.6673 O.2     1  LIG1       -0.2701
     30 O         -14.3101   -6.2573   -0.4657 O.2     1  LIG1       -0.5066
     31 O         -13.6897   -7.4622    1.6195 O.2     1  LIG1       -0.5066
     32 F         -16.8410   -5.3761    0.9173 F       1  LIG1       -0.1538
     33 F         -16.8009   -7.6601    0.9479 F       1  LIG1       -0.1538
     34 F         -16.2710   -6.4830    2.8328 F       1  LIG1       -0.1538
     35 S         -14.4475   -6.4765    0.9316 S.O2    1  LIG1       -0.2378
     36 H          -1.8585    1.5694   -4.2485 H       1  LIG1        0.0639
     37 H         -12.0666   -6.4349    0.2477 H       1  LIG1        0.0611
     38 H          -9.7211   -5.8089   -0.0865 H       1  LIG1        0.0642
     39 H          -0.8847   -0.5949   -3.5081 H       1  LIG1        0.0644
     40 H         -12.7488   -2.8727    2.5085 H       1  LIG1        0.0617
     41 H         -10.3345   -1.1919    2.7626 H       1  LIG1        0.0651
     42 H          -3.9178    2.3925   -3.1907 H       1  LIG1        0.0840
     43 H          -3.5072    0.2229    0.9527 H       1  LIG1        0.0485
     44 H          -5.0862    0.6783    0.2701 H       1  LIG1        0.0485
     45 H          -6.1354   -0.5361   -1.2649 H       1  LIG1        0.0485
     46 H          -5.4717   -2.0511   -1.9216 H       1  LIG1        0.0485
     47 H          -4.5373   -1.6568    2.1618 H       1  LIG1        0.0486
     48 H          -5.3997   -0.1490    2.5625 H       1  LIG1        0.0486
     49 H          -5.8605   -3.1883    0.2259 H       1  LIG1        0.0486
     50 H          -7.3786   -2.4396   -0.3330 H       1  LIG1        0.0486
     51 H           0.5752   -2.3799   -0.6394 H       1  LIG1        0.0249
     52 H           1.3778   -2.6167   -2.2104 H       1  LIG1        0.0249
     53 H           0.5340   -1.0883   -1.8634 H       1  LIG1        0.0249
     54 H          -0.7349   -4.4779   -0.9925 H       1  LIG1        0.0249
     55 H          -1.7093   -4.6809   -2.4680 H       1  LIG1        0.0249
     56 H           0.0677   -4.7147   -2.5634 H       1  LIG1        0.0249
     57 H          -0.8244   -2.5379   -3.3473 H       1  LIG1        0.0497
     58 H          -7.8581   -3.7238    0.5524 H       1  LIG1        0.1529
     59 H          -2.3282   -2.5938   -0.8446 H       1  LIG1        0.1469
@<TRIPOS>BOND
     1     1     4   ar
     2     1     7   ar
     3     2     3   ar
     4     2     9   ar
     5     3    10   ar
     6     4    11   ar
     7     5     8   ar
     8     5     9   ar
     9     6     8   ar
    10     6    12   ar
    11     7    23   ar
    12     8    10   ar
    13     9    24    1
    14    10    25   ar
    15    11    13   ar
    16    11    28    1
    17    12    14    1
    18    12    25   ar
    19    13    23   ar
    20    13    26    1
    21    14    27   am
    22    14    29    2
    23    15    17    1
    24    15    26    1
    25    16    18    1
    26    16    26    1
    27    17    27    1
    28    18    27    1
    29    19    21    1
    30    20    21    1
    31    21    28    1
    32    22    32    1
    33    22    33    1
    34    22    34    1
    35    22    35    1
    36    24    35    1
    37    30    35    2
    38    31    35    2
    39     1    36    1
    40     2    37    1
    41     3    38    1
    42     4    39    1
    43     5    40    1
    44     6    41    1
    45     7    42    1
    46    15    43    1
    47    15    44    1
    48    16    45    1
    49    16    46    1
    50    17    47    1
    51    17    48    1
    52    18    49    1
    53    18    50    1
    54    19    51    1
    55    19    52    1
    56    19    53    1
    57    20    54    1
    58    20    55    1
    59    20    56    1
    60    21    57    1
    61    25    58    1
    62    28    59    1
