@<TRIPOS>MOLECULE
ChEBML440265
 37 39 0 0 0
SMALL
USER_CHARGES

@<TRIPOS>ATOM
      1 C          -4.0465    0.2755   -2.7594 C.ar    1  LIG1       -0.0622
      2 C          -3.8831   -1.0375   -2.3183 C.ar    1  LIG1       -0.0619
      3 C          -4.5414    1.2471   -1.8894 C.ar    1  LIG1       -0.0619
      4 C         -10.4532   -2.1711    2.2604 C.ar    1  LIG1       -0.0530
      5 C          -9.0818   -1.9338    2.1354 C.ar    1  LIG1       -0.0490
      6 C          -4.2147   -1.3793   -1.0072 C.ar    1  LIG1       -0.0574
      7 C          -4.8730    0.9055   -0.5783 C.ar    1  LIG1       -0.0574
      8 C         -12.4164   -3.7203    1.5859 C.ar    1  LIG1       -0.0344
      9 C          -8.8517   -3.8775    0.7146 C.ar    1  LIG1       -0.0351
     10 C         -11.0516   -3.2763    1.6081 C.ar    1  LIG1       -0.0103
     11 C          -8.2914   -2.7794    1.3700 C.ar    1  LIG1        0.0382
     12 C          -4.7097   -0.4077   -0.1372 C.ar    1  LIG1       -0.0308
     13 C         -10.2344   -4.1140    0.8427 C.ar    1  LIG1        0.0205
     14 C         -12.5987   -4.8515    0.8265 C.ar    1  LIG1        0.0775
     15 C          -6.8649   -2.5212    1.2478 C.2     1  LIG1        0.2433
     16 C         -13.8035   -5.5731    0.5741 C.2     1  LIG1        0.2724
     17 C          -5.0670   -0.7749    1.2741 C.3     1  LIG1        0.0366
     18 N          -6.4452   -1.1938    1.3915 N.am    1  LIG1       -0.3072
     19 N         -14.9879   -5.1053    1.1569 N.am    1  LIG1       -0.1935
     20 O          -6.0742   -3.4500    1.0056 O.2     1  LIG1       -0.2718
     21 O         -13.8225   -6.5966   -0.1588 O.2     1  LIG1       -0.2690
     22 O         -16.1702   -5.8121    0.8934 O.3     1  LIG1       -0.2964
     23 S         -11.1410   -5.3966    0.1312 S.2     1  LIG1       -0.0838
     24 H          -3.7869    0.5417   -3.7799 H       1  LIG1        0.0622
     25 H          -3.4967   -1.7940   -2.9952 H       1  LIG1        0.0623
     26 H          -4.6677    2.2697   -2.2322 H       1  LIG1        0.0623
     27 H         -11.0596   -1.4998    2.8635 H       1  LIG1        0.0629
     28 H          -8.6450   -1.0788    2.6456 H       1  LIG1        0.0631
     29 H          -4.0843   -2.4050   -0.6723 H       1  LIG1        0.0626
     30 H          -5.2580    1.6689    0.0924 H       1  LIG1        0.0626
     31 H         -13.2229   -3.2214    2.1099 H       1  LIG1        0.0643
     32 H          -8.2330   -4.5404    0.1148 H       1  LIG1        0.0643
     33 H          -4.4339   -1.5939    1.6321 H       1  LIG1        0.0518
     34 H          -4.9160    0.0727    1.9509 H       1  LIG1        0.0518
     35 H          -7.1392   -0.4657    1.5255 H       1  LIG1        0.1500
     36 H         -14.9906   -4.2836    1.7490 H       1  LIG1        0.1839
     37 H         -15.8251   -6.5144    0.3162 H       1  LIG1        0.2427
@<TRIPOS>BOND
     1     1     2   ar
     2     1     3   ar
     3     2     6   ar
     4     3     7   ar
     5     4     5   ar
     6     4    10   ar
     7     5    11   ar
     8     6    12   ar
     9     7    12   ar
    10     8    10   ar
    11     8    14   ar
    12     9    11   ar
    13     9    13   ar
    14    10    13   ar
    15    11    15    1
    16    12    17    1
    17    13    23   ar
    18    14    16    1
    19    14    23   ar
    20    15    18   am
    21    15    20    2
    22    16    19   am
    23    16    21    2
    24    17    18    1
    25    19    22    1
    26     1    24    1
    27     2    25    1
    28     3    26    1
    29     4    27    1
    30     5    28    1
    31     6    29    1
    32     7    30    1
    33     8    31    1
    34     9    32    1
    35    17    33    1
    36    17    34    1
    37    18    35    1
    38    19    36    1
    39    22    37    1
