@<TRIPOS>MOLECULE
ChEBML895510
 45 48 0 0 0
SMALL
USER_CHARGES

@<TRIPOS>ATOM
      1 C         -10.7023   -3.0357    2.3985 C.ar    1  LIG1       -0.0379
      2 C         -12.0430   -3.2786    2.7067 C.ar    1  LIG1       -0.0271
      3 C          -1.8309   -0.4374   -3.0405 C.ar    1  LIG1       -0.0262
      4 C         -10.7836   -4.6513    0.5789 C.ar    1  LIG1       -0.0074
      5 C          -3.0970    1.5456   -2.6920 C.ar    1  LIG1        0.0414
      6 C          -1.9978    0.9249   -3.2634 C.ar    1  LIG1        0.0754
      7 C         -10.0762   -3.7182    1.3406 C.ar    1  LIG1        0.0367
      8 C         -12.7188   -4.2048    1.9393 C.ar    1  LIG1        0.1085
      9 C         -12.1061   -4.8727    0.9038 C.ar    1  LIG1        0.1102
     10 C          -2.7549   -1.1275   -2.2638 C.ar    1  LIG1        0.0815
     11 C          -3.8201   -0.4148   -1.7370 C.ar    1  LIG1        0.1388
     12 C          -8.1578   -2.2317    1.3627 C.2     1  LIG1        0.3050
     13 C          -4.9451   -0.6539    0.4191 C.3     1  LIG1        0.0289
     14 C          -5.8320   -1.7858   -1.6422 C.3     1  LIG1        0.0289
     15 C          -6.4345   -0.5623    0.7435 C.3     1  LIG1        0.0315
     16 C          -6.6431   -2.6136   -0.6442 C.3     1  LIG1        0.0315
     17 C         -14.1598   -5.5416    1.0345 C.3     1  LIG1        0.1586
     18 C          -1.0274    1.6917   -4.0894 C.3     1  LIG1        0.4175
     19 N          -4.0156    0.9086   -1.9318 N.ar    1  LIG1       -0.2392
     20 N          -4.7410   -1.0788   -0.9685 N.pl3   1  LIG1       -0.3115
     21 N          -7.1178   -1.8315    0.5027 N.am    1  LIG1       -0.2824
     22 N          -8.7322   -3.4587    1.0484 N.am    1  LIG1       -0.2690
     23 O          -8.5270   -1.5518    2.3258 O.2     1  LIG1       -0.2537
     24 O         -14.0213   -4.5690    2.0903 O.3     1  LIG1       -0.3159
     25 O         -12.9481   -5.7388    0.2771 O.3     1  LIG1       -0.3159
     26 F          -0.0003    0.9333   -4.5798 F       1  LIG1       -0.1661
     27 F          -1.5858    2.2820   -5.1892 F       1  LIG1       -0.1661
     28 F          -0.4295    2.7070   -3.3973 F       1  LIG1       -0.1661
     29 CL         -2.5333   -2.8152   -1.9973 Cl      1  LIG1       -0.0805
     30 H         -10.1462   -2.3108    2.9886 H       1  LIG1        0.0643
     31 H         -12.5294   -2.7552    3.5221 H       1  LIG1        0.0652
     32 H          -0.9784   -0.9542   -3.4751 H       1  LIG1        0.0646
     33 H         -10.3143   -5.1856   -0.2406 H       1  LIG1        0.0671
     34 H          -3.2794    2.6068   -2.8313 H       1  LIG1        0.0847
     35 H          -4.4785    0.3213    0.6052 H       1  LIG1        0.0485
     36 H          -4.4597   -1.3814    1.0807 H       1  LIG1        0.0485
     37 H          -5.4312   -2.4493   -2.4178 H       1  LIG1        0.0485
     38 H          -6.4874   -1.0560   -2.1347 H       1  LIG1        0.0485
     39 H          -6.5702   -0.2518    1.7848 H       1  LIG1        0.0486
     40 H          -6.9226    0.1893    0.1110 H       1  LIG1        0.0486
     41 H          -7.4992   -3.0605   -1.1605 H       1  LIG1        0.0486
     42 H          -6.0296   -3.4278   -0.2399 H       1  LIG1        0.0486
     43 H         -14.4566   -6.4997    1.4768 H       1  LIG1        0.0892
     44 H         -14.9504   -5.2093    0.3520 H       1  LIG1        0.0892
     45 H          -8.1936   -4.2207    0.6533 H       1  LIG1        0.1573
@<TRIPOS>BOND
     1     1     2   ar
     2     1     7   ar
     3     2     8   ar
     4     3     6   ar
     5     3    10   ar
     6     4     7   ar
     7     4     9   ar
     8     5     6   ar
     9     5    19   ar
    10     6    18    1
    11     7    22    1
    12     8     9   ar
    13     8    24    1
    14     9    25    1
    15    10    11   ar
    16    10    29    1
    17    11    19   ar
    18    11    20    1
    19    12    21   am
    20    12    22   am
    21    12    23    2
    22    13    15    1
    23    13    20    1
    24    14    16    1
    25    14    20    1
    26    15    21    1
    27    16    21    1
    28    17    24    1
    29    17    25    1
    30    18    26    1
    31    18    27    1
    32    18    28    1
    33     1    30    1
    34     2    31    1
    35     3    32    1
    36     4    33    1
    37     5    34    1
    38    13    35    1
    39    13    36    1
    40    14    37    1
    41    14    38    1
    42    15    39    1
    43    15    40    1
    44    16    41    1
    45    16    42    1
    46    17    43    1
    47    17    44    1
    48    22    45    1
