@<TRIPOS>MOLECULE
ChEBML1023968
 47 49 0 0 0
SMALL
USER_CHARGES

@<TRIPOS>ATOM
      1 C          -3.1089    1.2923   -3.4622 C.ar    1  LIG1       -0.0602
      2 C          -1.7537    0.9763   -3.3677 C.ar    1  LIG1       -0.0595
      3 C          -4.0389    0.6198   -2.6692 C.ar    1  LIG1       -0.0382
      4 C         -10.1547   -5.1000    1.6820 C.ar    1  LIG1       -0.0377
      5 C          -1.3283   -0.0123   -2.4803 C.ar    1  LIG1       -0.0299
      6 C         -11.4896   -5.4336    1.9108 C.ar    1  LIG1       -0.0229
      7 C         -10.8276   -2.8878    0.9819 C.ar    1  LIG1       -0.0190
      8 C          -3.6135   -0.3688   -1.7819 C.ar    1  LIG1        0.0594
      9 C          -9.8237   -3.8271    1.2176 C.ar    1  LIG1        0.0356
     10 C          -2.2582   -0.6849   -1.6873 C.ar    1  LIG1        0.0961
     11 C         -12.4934   -4.4944    1.6751 C.ar    1  LIG1        0.1414
     12 C         -12.1625   -3.2213    1.2107 C.ar    1  LIG1        0.0781
     13 C          -8.0245   -2.1982    1.2050 C.2     1  LIG1        0.3050
     14 C          -4.8736   -0.4747    0.3092 C.3     1  LIG1        0.0275
     15 C          -5.5227   -1.8786   -1.6719 C.3     1  LIG1        0.0275
     16 C          -6.3855   -0.4692    0.5237 C.3     1  LIG1        0.0315
     17 C          -6.3429   -2.6618   -0.6458 C.3     1  LIG1        0.0315
     18 C          -0.3918   -3.2106   -1.9418 C.3     1  LIG1       -0.0410
     19 C          -1.7561   -2.9814   -1.3271 C.3     1  LIG1        0.0506
     20 N          -4.5380   -1.0218   -1.0083 N.pl3   1  LIG1       -0.3255
     21 N          -6.9557   -1.8067    0.3768 N.am    1  LIG1       -0.2824
     22 N          -8.4841   -3.4927    0.9876 N.am    1  LIG1       -0.2690
     23 O          -8.5115   -1.4549    2.0631 O.2     1  LIG1       -0.2537
     24 O          -1.8220   -1.6475   -0.8270 O.3     1  LIG1       -0.3444
     25 F         -13.7720   -4.8300    1.9000 F       1  LIG1       -0.2053
     26 CL        -13.3977   -2.0576    0.9201 Cl      1  LIG1       -0.0810
     27 H          -3.4402    2.0614   -4.1536 H       1  LIG1        0.0623
     28 H          -1.0298    1.5001   -3.9847 H       1  LIG1        0.0623
     29 H          -5.0925    0.8749   -2.7510 H       1  LIG1        0.0643
     30 H          -9.3811   -5.8402    1.8702 H       1  LIG1        0.0643
     31 H          -0.2708   -0.2536   -2.4111 H       1  LIG1        0.0651
     32 H         -11.7468   -6.4245    2.2733 H       1  LIG1        0.0654
     33 H         -10.5651   -1.8959    0.6197 H       1  LIG1        0.0659
     34 H          -4.4936    0.5485    0.4194 H       1  LIG1        0.0485
     35 H          -4.3868   -1.0897    1.0756 H       1  LIG1        0.0485
     36 H          -5.0191   -2.5839   -2.3437 H       1  LIG1        0.0485
     37 H          -6.1912   -1.2575   -2.2819 H       1  LIG1        0.0485
     38 H          -6.6193   -0.0656    1.5144 H       1  LIG1        0.0486
     39 H          -6.8788    0.1725   -0.2166 H       1  LIG1        0.0486
     40 H          -7.1242   -3.2259   -1.1658 H       1  LIG1        0.0486
     41 H          -5.7036   -3.3789   -0.1169 H       1  LIG1        0.0486
     42 H          -0.2155   -2.5184   -2.7697 H       1  LIG1        0.0254
     43 H           0.3963   -3.0751   -1.1937 H       1  LIG1        0.0254
     44 H          -0.3040   -4.2366   -2.3143 H       1  LIG1        0.0254
     45 H          -1.9260   -3.6768   -0.4997 H       1  LIG1        0.0569
     46 H          -2.5422   -3.1163   -2.0759 H       1  LIG1        0.0569
     47 H          -7.8644   -4.2460    0.7130 H       1  LIG1        0.1573
@<TRIPOS>BOND
     1     1     2   ar
     2     1     3   ar
     3     2     5   ar
     4     3     8   ar
     5     4     6   ar
     6     4     9   ar
     7     5    10   ar
     8     6    11   ar
     9     7     9   ar
    10     7    12   ar
    11     8    10   ar
    12     8    20    1
    13     9    22    1
    14    10    24    1
    15    11    12   ar
    16    11    25    1
    17    12    26    1
    18    13    21   am
    19    13    22   am
    20    13    23    2
    21    14    16    1
    22    14    20    1
    23    15    17    1
    24    15    20    1
    25    16    21    1
    26    17    21    1
    27    18    19    1
    28    19    24    1
    29     1    27    1
    30     2    28    1
    31     3    29    1
    32     4    30    1
    33     5    31    1
    34     6    32    1
    35     7    33    1
    36    14    34    1
    37    14    35    1
    38    15    36    1
    39    15    37    1
    40    16    38    1
    41    16    39    1
    42    17    40    1
    43    17    41    1
    44    18    42    1
    45    18    43    1
    46    18    44    1
    47    19    45    1
    48    19    46    1
    49    22    47    1
