@<TRIPOS>MOLECULE
ChEBML1151956
 44 47 0 0 0
SMALL
USER_CHARGES

@<TRIPOS>ATOM
      1 C          -2.1061   -0.0853   -3.1292 C.ar    1  LIG1       -0.0616
      2 C          -2.3445   -0.8037   -1.9612 C.ar    1  LIG1       -0.0616
      3 C         -12.6593   -4.3531    1.4416 C.ar    1  LIG1       -0.0615
      4 C         -11.8988   -5.3826    0.8905 C.ar    1  LIG1       -0.0603
      5 C          -6.0478    2.6320   -2.2625 C.ar    1  LIG1       -0.0611
      6 C          -2.9648    0.9497   -3.5002 C.ar    1  LIG1       -0.0544
      7 C         -12.0626   -3.1441    1.8176 C.ar    1  LIG1       -0.0530
      8 C          -3.4425   -0.4897   -1.1598 C.ar    1  LIG1       -0.0539
      9 C          -4.9497    2.3181   -3.0638 C.ar    1  LIG1       -0.0543
     10 C          -6.2862    1.9137   -1.0946 C.ar    1  LIG1       -0.0529
     11 C         -10.5219   -5.2379    0.6975 C.ar    1  LIG1       -0.0402
     12 C          -9.7632   -1.9146    1.8915 C.ar    1  LIG1       -0.0305
     13 C          -4.0749    1.2795   -2.7057 C.ar    1  LIG1       -0.0179
     14 C         -10.6760   -2.9752    1.6326 C.ar    1  LIG1       -0.0025
     15 C          -4.3173    0.5489   -1.5180 C.ar    1  LIG1       -0.0096
     16 C          -5.4275    0.8786   -0.7234 C.ar    1  LIG1        0.0063
     17 C          -9.9392   -4.0239    1.0781 C.ar    1  LIG1        0.0376
     18 C          -8.5132   -2.3324    1.4967 C.ar    1  LIG1        0.0523
     19 C          -5.7767    1.0600    1.7741 C.3     1  LIG1       -0.0182
     20 C          -7.1875   -1.6312    1.5385 C.3     1  LIG1        0.0038
     21 C          -5.7419    0.1468    0.5446 C.3     1  LIG1       -0.0011
     22 N          -8.6295   -3.6056    1.0072 N.ar    1  LIG1       -0.3135
     23 N          -7.0475   -0.5916    0.4925 N.4     1  LIG1        0.2480
     24 H          -1.2511   -0.3303   -3.7526 H       1  LIG1        0.0623
     25 H          -1.6753   -1.6092   -1.6731 H       1  LIG1        0.0623
     26 H         -13.7280   -4.4897    1.5825 H       1  LIG1        0.0623
     27 H         -12.3832   -6.3135    0.6057 H       1  LIG1        0.0623
     28 H          -6.7168    3.4375   -2.5510 H       1  LIG1        0.0623
     29 H          -2.7591    1.4978   -4.4173 H       1  LIG1        0.0629
     30 H         -12.6671   -2.3495    2.2455 H       1  LIG1        0.0629
     31 H          -3.5949   -1.0738   -0.2553 H       1  LIG1        0.0629
     32 H          -4.7829    2.8929   -3.9724 H       1  LIG1        0.0629
     33 H          -7.1450    2.1678   -0.4786 H       1  LIG1        0.0628
     34 H          -9.9308   -6.0402    0.2690 H       1  LIG1        0.0642
     35 H          -9.9983   -0.9497    2.3205 H       1  LIG1        0.0648
     36 H          -6.5020    1.8731    1.6579 H       1  LIG1        0.0291
     37 H          -6.0460    0.5014    2.6775 H       1  LIG1        0.0291
     38 H          -4.7937    1.5139    1.9435 H       1  LIG1        0.0291
     39 H          -7.0339   -1.1316    2.5011 H       1  LIG1        0.0881
     40 H          -6.3622   -2.3366    1.3932 H       1  LIG1        0.0881
     41 H          -4.9966   -0.6425    0.7289 H       1  LIG1        0.0903
     42 H          -7.8665   -4.1616    0.6457 H       1  LIG1        0.1527
     43 H          -7.1411   -1.0174   -0.4349 H       1  LIG1        0.1993
     44 H          -7.8080    0.0901    0.5769 H       1  LIG1        0.1993
@<TRIPOS>BOND
     1     1     2   ar
     2     1     6   ar
     3     2     8   ar
     4     3     4   ar
     5     3     7   ar
     6     4    11   ar
     7     5     9   ar
     8     5    10   ar
     9     6    13   ar
    10     7    14   ar
    11     8    15   ar
    12     9    13   ar
    13    10    16   ar
    14    11    17   ar
    15    12    14   ar
    16    12    18   ar
    17    13    15   ar
    18    14    17   ar
    19    15    16   ar
    20    16    21    1
    21    17    22   ar
    22    18    20    1
    23    18    22   ar
    24    19    21    1
    25    20    23    1
    26    21    23    1
    27     1    24    1
    28     2    25    1
    29     3    26    1
    30     4    27    1
    31     5    28    1
    32     6    29    1
    33     7    30    1
    34     8    31    1
    35     9    32    1
    36    10    33    1
    37    11    34    1
    38    12    35    1
    39    19    36    1
    40    19    37    1
    41    19    38    1
    42    20    39    1
    43    20    40    1
    44    21    41    1
    45    22    42    1
    46    23    43    1
    47    23    44    1
