@<TRIPOS>MOLECULE
ChEBML5359
 47 50 0 0 0
SMALL
USER_CHARGES

@<TRIPOS>ATOM
      1 C         -12.6243   -4.7818    1.2347 C.ar    1  LIG1       -0.0615
      2 C         -11.7093   -5.5803    0.5515 C.ar    1  LIG1       -0.0603
      3 C         -12.2194   -3.5878    1.8426 C.ar    1  LIG1       -0.0530
      4 C          -2.2073   -0.8132   -2.0893 C.ar    1  LIG1       -0.0529
      5 C          -3.6057    1.1462   -1.8835 C.ar    1  LIG1       -0.0529
      6 C          -2.0145    0.5457    1.8973 C.ar    1  LIG1       -0.0529
      7 C          -1.7483   -1.7829    1.3113 C.ar    1  LIG1       -0.0529
      8 C         -10.3641   -5.2131    0.4537 C.ar    1  LIG1       -0.0402
      9 C          -1.8873   -0.4474   -3.3968 C.ar    1  LIG1       -0.0429
     10 C          -3.2856    1.5119   -3.1909 C.ar    1  LIG1       -0.0429
     11 C          -1.0404    0.4082    2.8861 C.ar    1  LIG1       -0.0429
     12 C          -0.7741   -1.9204    2.3001 C.ar    1  LIG1       -0.0429
     13 C         -10.1262   -2.0829    2.2399 C.ar    1  LIG1       -0.0262
     14 C         -10.8683   -3.1971    1.7573 C.ar    1  LIG1       -0.0022
     15 C          -3.0666   -0.0164   -1.3326 C.ar    1  LIG1       -0.0179
     16 C          -2.3685   -0.5499    1.1098 C.ar    1  LIG1       -0.0179
     17 C          -9.9737   -4.0171    1.0664 C.ar    1  LIG1        0.0378
     18 C          -2.4264    0.7152   -3.9476 C.ar    1  LIG1        0.0406
     19 C          -0.4202   -0.8248    3.0875 C.ar    1  LIG1        0.0406
     20 C          -8.8198   -2.2451    1.8401 C.ar    1  LIG1        0.0945
     21 C          -4.6923   -0.6266    0.4063 C.2     1  LIG1       -0.0589
     22 C          -3.4061   -0.4037    0.0555 C.2     1  LIG1       -0.0136
     23 C          -7.7041   -1.3870    2.0862 C.2     1  LIG1        0.2575
     24 C          -5.2250   -1.0229    1.7503 C.3     1  LIG1        0.0305
     25 N          -8.7377   -3.4144    1.1327 N.ar    1  LIG1       -0.3101
     26 N          -6.4484   -1.7704    1.5679 N.am    1  LIG1       -0.3066
     27 O          -7.8226   -0.3324    2.7595 O.2     1  LIG1       -0.2704
     28 CL         -2.0313    1.1660   -5.5603 Cl      1  LIG1       -0.0843
     29 CL          0.7815   -0.9940    4.3073 Cl      1  LIG1       -0.0843
     30 H         -13.6654   -5.0880    1.2964 H       1  LIG1        0.0623
     31 H         -12.0456   -6.5036    0.0872 H       1  LIG1        0.0623
     32 H         -12.9434   -2.9744    2.3717 H       1  LIG1        0.0629
     33 H          -1.7799   -1.7225   -1.6732 H       1  LIG1        0.0629
     34 H          -4.2768    1.7772   -1.3055 H       1  LIG1        0.0629
     35 H          -2.4899    1.5128    1.7520 H       1  LIG1        0.0629
     36 H          -2.0139   -2.6457    0.7051 H       1  LIG1        0.0629
     37 H          -9.6519   -5.8352   -0.0778 H       1  LIG1        0.0642
     38 H          -1.2159   -1.0779   -3.9742 H       1  LIG1        0.0638
     39 H          -3.7134    2.4206   -3.6071 H       1  LIG1        0.0638
     40 H          -0.7745    1.2710    3.4916 H       1  LIG1        0.0638
     41 H          -0.2993   -2.8874    2.4458 H       1  LIG1        0.0638
     42 H         -10.5114   -1.2531    2.8176 H       1  LIG1        0.0651
     43 H          -5.4707   -0.4897   -0.3457 H       1  LIG1        0.0599
     44 H          -5.4609   -0.1295    2.3367 H       1  LIG1        0.0512
     45 H          -4.5393   -1.6371    2.3382 H       1  LIG1        0.0512
     46 H          -7.8933   -3.7852    0.7186 H       1  LIG1        0.1529
     47 H          -6.3782   -2.6595    1.0838 H       1  LIG1        0.1500
@<TRIPOS>BOND
     1     1     2   ar
     2     1     3   ar
     3     2     8   ar
     4     3    14   ar
     5     4     9   ar
     6     4    15   ar
     7     5    10   ar
     8     5    15   ar
     9     6    11   ar
    10     6    16   ar
    11     7    12   ar
    12     7    16   ar
    13     8    17   ar
    14     9    18   ar
    15    10    18   ar
    16    11    19   ar
    17    12    19   ar
    18    13    14   ar
    19    13    20   ar
    20    14    17   ar
    21    15    22    1
    22    16    22    1
    23    17    25   ar
    24    18    28    1
    25    19    29    1
    26    20    23    1
    27    20    25   ar
    28    21    22    2
    29    21    24    1
    30    23    26   am
    31    23    27    2
    32    24    26    1
    33     1    30    1
    34     2    31    1
    35     3    32    1
    36     4    33    1
    37     5    34    1
    38     6    35    1
    39     7    36    1
    40     8    37    1
    41     9    38    1
    42    10    39    1
    43    11    40    1
    44    12    41    1
    45    13    42    1
    46    21    43    1
    47    24    44    1
    48    24    45    1
    49    25    46    1
    50    26    47    1
