@<TRIPOS>MOLECULE
ChEBML212667
 39 41 0 0 0
SMALL
USER_CHARGES

@<TRIPOS>ATOM
      1 C         -12.4153   -4.7240    1.1250 C.ar    1  LIG1       -0.0615
      2 C         -11.4319   -5.6856    0.9014 C.ar    1  LIG1       -0.0603
      3 C         -12.0688   -3.4023    1.4285 C.ar    1  LIG1       -0.0530
      4 C         -10.0747   -5.3589    0.9736 C.ar    1  LIG1       -0.0402
      5 C         -10.0106   -1.8397    1.7837 C.ar    1  LIG1       -0.0262
      6 C         -10.7070   -3.0494    1.5067 C.ar    1  LIG1       -0.0022
      7 C          -9.7432   -4.0339    1.2780 C.ar    1  LIG1        0.0378
      8 C          -8.6628   -2.1083    1.7194 C.ar    1  LIG1        0.0947
      9 C          -7.5655   -1.2088    1.9254 C.2     1  LIG1        0.2602
     10 C          -6.4019   -2.1598   -0.0984 C.3     1  LIG1        0.0539
     11 C          -5.0601   -1.1576    1.7044 C.3     1  LIG1        0.0539
     12 C          -5.6907   -1.3049   -1.1370 C.3     1  LIG1       -0.0180
     13 C          -4.3171   -0.2902    0.6976 C.3     1  LIG1       -0.0180
     14 C          -3.4508   -1.0140   -2.9521 C.3     1  LIG1       -0.0254
     15 C          -3.4998   -0.2255   -1.6616 C.3     1  LIG1       -0.0371
     16 N          -8.5115   -3.4342    1.4135 N.ar    1  LIG1       -0.3101
     17 N          -6.3951   -1.4950    1.2110 N.am    1  LIG1       -0.2863
     18 N          -4.2941   -0.9930   -0.6424 N.4     1  LIG1        0.2481
     19 O          -7.6776   -0.2522    2.6901 O.2     1  LIG1       -0.2701
     20 H         -13.4641   -5.0020    1.0624 H       1  LIG1        0.0623
     21 H         -11.7235   -6.7061    0.6675 H       1  LIG1        0.0623
     22 H         -12.8458   -2.6624    1.5999 H       1  LIG1        0.0629
     23 H          -9.3093   -6.1079    0.8000 H       1  LIG1        0.0642
     24 H         -10.4529   -0.8777    2.0060 H       1  LIG1        0.0651
     25 H          -7.4183   -2.3721   -0.4388 H       1  LIG1        0.0525
     26 H          -5.8935   -3.1239    0.0239 H       1  LIG1        0.0525
     27 H          -4.5252   -2.0995    1.8751 H       1  LIG1        0.0525
     28 H          -5.1205   -0.6369    2.6651 H       1  LIG1        0.0525
     29 H          -5.5925   -1.8420   -2.0857 H       1  LIG1        0.0831
     30 H          -6.2023   -0.3496   -1.2996 H       1  LIG1        0.0831
     31 H          -4.8113    0.6768    0.5511 H       1  LIG1        0.0831
     32 H          -3.2788   -0.1342    1.0072 H       1  LIG1        0.0831
     33 H          -2.9499   -1.9734   -2.7900 H       1  LIG1        0.0284
     34 H          -4.4582   -1.2178   -3.3297 H       1  LIG1        0.0284
     35 H          -2.8999   -0.4710   -3.7271 H       1  LIG1        0.0284
     36 H          -3.9963    0.7394   -1.7957 H       1  LIG1        0.0811
     37 H          -2.5012   -0.0735   -1.2425 H       1  LIG1        0.0811
     38 H          -7.6252   -3.9078    1.3033 H       1  LIG1        0.1529
     39 H          -3.8087   -1.8909   -0.5087 H       1  LIG1        0.2004
@<TRIPOS>BOND
     1     1     2   ar
     2     1     3   ar
     3     2     4   ar
     4     3     6   ar
     5     4     7   ar
     6     5     6   ar
     7     5     8   ar
     8     6     7   ar
     9     7    16   ar
    10     8     9    1
    11     8    16   ar
    12     9    17   am
    13     9    19    2
    14    10    12    1
    15    10    17    1
    16    11    13    1
    17    11    17    1
    18    12    18    1
    19    13    18    1
    20    14    15    1
    21    15    18    1
    22     1    20    1
    23     2    21    1
    24     3    22    1
    25     4    23    1
    26     5    24    1
    27    10    25    1
    28    10    26    1
    29    11    27    1
    30    11    28    1
    31    12    29    1
    32    12    30    1
    33    13    31    1
    34    13    32    1
    35    14    33    1
    36    14    34    1
    37    14    35    1
    38    15    36    1
    39    15    37    1
    40    16    38    1
    41    18    39    1
