@<TRIPOS>MOLECULE
ChEBML717002
 64 67 0 0 0
SMALL
USER_CHARGES

@<TRIPOS>ATOM
      1 C          -2.0271    0.8860   -3.3277 C.ar    1  LIG1       -0.0431
      2 C          -1.8380   -0.4600   -3.0347 C.ar    1  LIG1       -0.0449
      3 C         -11.9243   -5.3324    0.7269 C.ar    1  LIG1       -0.0566
      4 C         -12.3793   -3.1539    1.6672 C.ar    1  LIG1       -0.0566
      5 C         -10.5652   -5.0239    0.6697 C.ar    1  LIG1       -0.0405
      6 C         -11.0201   -2.8454    1.6101 C.ar    1  LIG1       -0.0405
      7 C          -3.1164    1.5266   -2.7595 C.ar    1  LIG1        0.0291
      8 C          -6.8493   -2.0132    0.7349 C.ar    1  LIG1        0.0173
      9 C         -12.8315   -4.3973    1.2255 C.ar    1  LIG1       -0.0425
     10 C          -2.7314   -1.1150   -2.1943 C.ar    1  LIG1        0.0957
     11 C         -10.1131   -3.7804    1.1114 C.ar    1  LIG1        0.0314
     12 C          -6.1609   -0.8880    1.1611 C.ar    1  LIG1        0.0666
     13 C          -3.7890   -0.3848   -1.6767 C.ar    1  LIG1        0.1325
     14 C          -8.0095   -2.3171    1.4227 C.ar    1  LIG1        0.1290
     15 C          -7.7409   -0.5046    2.7645 C.ar    1  LIG1        0.1330
     16 C          -6.3050   -2.8366   -0.3810 C.3     1  LIG1       -0.0067
     17 C          -4.8388   -0.5311    0.5286 C.3     1  LIG1        0.0557
     18 C          -5.6677   -1.9307   -1.4345 C.3     1  LIG1        0.0175
     19 C          -9.7703    0.2788    4.0380 C.3     1  LIG1       -0.0556
     20 C          -7.7826    1.8063    3.7706 C.3     1  LIG1       -0.0556
     21 C         -14.5452   -5.9745    2.1854 C.3     1  LIG1       -0.0561
     22 C         -14.8539   -5.0409   -0.1317 C.3     1  LIG1       -0.0561
     23 C         -15.2046   -3.5990    1.8631 C.3     1  LIG1       -0.0561
     24 C          -8.2381    0.3393    3.8887 C.3     1  LIG1        0.0134
     25 C         -14.2848   -4.7261    1.2865 C.3     1  LIG1       -0.0132
     26 C          -2.5249   -2.5582   -1.8824 C.3     1  LIG1        0.4193
     27 N          -4.0054    0.9238   -1.9387 N.ar    1  LIG1       -0.2408
     28 N          -6.5901   -0.1138    2.1836 N.ar    1  LIG1       -0.2355
     29 N          -8.4876   -1.5769    2.4429 N.ar    1  LIG1       -0.2174
     30 N          -4.6715   -1.0263   -0.8470 N.pl3   1  LIG1       -0.3090
     31 N          -8.7439   -3.4701    1.0558 N.pl3   1  LIG1       -0.2993
     32 F          -1.4262   -3.0983   -2.4890 F       1  LIG1       -0.1660
     33 F          -2.3563   -2.8117   -0.5507 F       1  LIG1       -0.1660
     34 F          -3.5769   -3.3359   -2.2723 F       1  LIG1       -0.1660
     35 H          -1.3431    1.4167   -3.9798 H       1  LIG1        0.0639
     36 H          -0.9925   -0.9890   -3.4656 H       1  LIG1        0.0631
     37 H         -12.2679   -6.3031    0.3797 H       1  LIG1        0.0626
     38 H         -13.0787   -2.4186    2.0556 H       1  LIG1        0.0626
     39 H          -9.8671   -5.7592    0.2780 H       1  LIG1        0.0642
     40 H         -10.6791   -1.8732    1.9563 H       1  LIG1        0.0642
     41 H          -3.3093    2.5760   -2.9569 H       1  LIG1        0.0840
     42 H          -5.5600   -3.5320    0.0244 H       1  LIG1        0.0334
     43 H          -7.0835   -3.4311   -0.8709 H       1  LIG1        0.0334
     44 H          -4.7434    0.5625    0.5382 H       1  LIG1        0.0536
     45 H          -4.0344   -0.9396    1.1520 H       1  LIG1        0.0536
     46 H          -5.1985   -2.5582   -2.2026 H       1  LIG1        0.0472
     47 H          -6.4415   -1.3302   -1.9312 H       1  LIG1        0.0472
     48 H         -10.2775    0.6280    3.1321 H       1  LIG1        0.0238
     49 H         -10.1165    0.8984    4.8724 H       1  LIG1        0.0238
     50 H         -10.0955   -0.7503    4.2270 H       1  LIG1        0.0238
     51 H          -8.1545    2.2483    2.8395 H       1  LIG1        0.0238
     52 H          -6.6903    1.8877    3.7673 H       1  LIG1        0.0238
     53 H          -8.1582    2.4131    4.6017 H       1  LIG1        0.0238
     54 H         -15.6075   -6.2379    2.2473 H       1  LIG1        0.0239
     55 H         -14.0181   -6.8576    1.8081 H       1  LIG1        0.0239
     56 H         -14.1874   -5.7887    3.2052 H       1  LIG1        0.0239
     57 H         -15.9216   -5.2829   -0.0910 H       1  LIG1        0.0239
     58 H         -14.7422   -4.2022   -0.8289 H       1  LIG1        0.0239
     59 H         -14.3369   -5.9054   -0.5644 H       1  LIG1        0.0239
     60 H         -16.2623   -3.8878    1.8875 H       1  LIG1        0.0239
     61 H         -14.9161   -3.3476    2.8904 H       1  LIG1        0.0239
     62 H         -15.1335   -2.6890    1.2559 H       1  LIG1        0.0239
     63 H          -7.8251   -0.0302    4.8468 H       1  LIG1        0.0379
     64 H          -8.1650   -4.2127    0.6800 H       1  LIG1        0.1543
@<TRIPOS>BOND
     1     1     2   ar
     2     1     7   ar
     3     2    10   ar
     4     3     5   ar
     5     3     9   ar
     6     4     6   ar
     7     4     9   ar
     8     5    11   ar
     9     6    11   ar
    10     7    27   ar
    11     8    12   ar
    12     8    14   ar
    13     8    16    1
    14     9    25    1
    15    10    13   ar
    16    10    26    1
    17    11    31    1
    18    12    17    1
    19    12    28   ar
    20    13    27   ar
    21    13    30    1
    22    14    29   ar
    23    14    31    1
    24    15    24    1
    25    15    28   ar
    26    15    29   ar
    27    16    18    1
    28    17    30    1
    29    18    30    1
    30    19    24    1
    31    20    24    1
    32    21    25    1
    33    22    25    1
    34    23    25    1
    35    26    32    1
    36    26    33    1
    37    26    34    1
    38     1    35    1
    39     2    36    1
    40     3    37    1
    41     4    38    1
    42     5    39    1
    43     6    40    1
    44     7    41    1
    45    16    42    1
    46    16    43    1
    47    17    44    1
    48    17    45    1
    49    18    46    1
    50    18    47    1
    51    19    48    1
    52    19    49    1
    53    19    50    1
    54    20    51    1
    55    20    52    1
    56    20    53    1
    57    21    54    1
    58    21    55    1
    59    21    56    1
    60    22    57    1
    61    22    58    1
    62    22    59    1
    63    23    60    1
    64    23    61    1
    65    23    62    1
    66    24    63    1
    67    31    64    1
