@<TRIPOS>MOLECULE
ChEBML348292
 36 39 0 0 0
SMALL
USER_CHARGES

@<TRIPOS>ATOM
      1 C         -10.1671   -5.3526    0.5533 C.ar    1  LIG1       -0.0376
      2 C          -3.7322   -2.3397   -0.8112 C.ar    1  LIG1       -0.0387
      3 C         -11.4806   -5.8147    0.6766 C.ar    1  LIG1       -0.0299
      4 C          -2.9235   -1.6558   -1.7233 C.ar    1  LIG1       -0.0416
      5 C         -12.1676   -3.7494    1.7534 C.ar    1  LIG1       -0.0226
      6 C          -4.3018    0.3352   -1.5409 C.ar    1  LIG1       -0.0343
      7 C         -10.2065   -2.0490    2.0128 C.ar    1  LIG1       -0.0275
      8 C          -6.2983    0.0294    0.1096 C.ar    1  LIG1       -0.0275
      9 C         -10.8503   -3.2622    1.6402 C.ar    1  LIG1        0.0003
     10 C          -5.1315   -0.3339   -0.6194 C.ar    1  LIG1       -0.0008
     11 C          -9.8824   -4.0734    1.0441 C.ar    1  LIG1        0.0379
     12 C          -4.8282   -1.6532   -0.2764 C.ar    1  LIG1        0.0379
     13 C         -12.4670   -5.0272    1.2669 C.ar    1  LIG1        0.0753
     14 C          -3.2019   -0.3389   -2.0840 C.ar    1  LIG1        0.0413
     15 C          -8.8848   -2.1456    1.6428 C.ar    1  LIG1        0.0811
     16 C          -6.6740   -1.0563    0.8667 C.ar    1  LIG1        0.0811
     17 C          -7.8449   -1.1801    1.8089 C.2     1  LIG1        0.2206
     18 C         -14.7026   -4.6525    1.9862 C.3     1  LIG1        0.0422
     19 N          -8.6990   -3.3700    1.0591 N.ar    1  LIG1       -0.3112
     20 N          -5.7811   -2.0662    0.6273 N.ar    1  LIG1       -0.3112
     21 O          -7.8549   -0.3712    2.7658 O.2     1  LIG1       -0.2856
     22 O         -13.7388   -5.5057    1.3727 O.3     1  LIG1       -0.3493
     23 CL         -2.1807    0.4714   -3.2105 Cl      1  LIG1       -0.0843
     24 H          -9.3999   -5.9663    0.0932 H       1  LIG1        0.0643
     25 H          -3.5146   -3.3652   -0.5316 H       1  LIG1        0.0643
     26 H         -11.7284   -6.8058    0.3032 H       1  LIG1        0.0651
     27 H          -2.0671   -2.1740   -2.1496 H       1  LIG1        0.0639
     28 H         -12.9426   -3.1411    2.2117 H       1  LIG1        0.0657
     29 H          -4.5205    1.3621   -1.8217 H       1  LIG1        0.0645
     30 H         -10.6653   -1.1987    2.4998 H       1  LIG1        0.0651
     31 H          -6.8057    0.9845    0.0807 H       1  LIG1        0.0651
     32 H         -15.6732   -5.1539    2.0072 H       1  LIG1        0.0535
     33 H         -14.7749   -3.7188    1.4229 H       1  LIG1        0.0535
     34 H         -14.3852   -4.4352    3.0088 H       1  LIG1        0.0535
     35 H          -7.8217   -3.7115    0.6912 H       1  LIG1        0.1529
     36 H          -5.8136   -2.9835    1.0507 H       1  LIG1        0.1529
@<TRIPOS>BOND
     1     1     3   ar
     2     1    11   ar
     3     2     4   ar
     4     2    12   ar
     5     3    13   ar
     6     4    14   ar
     7     5     9   ar
     8     5    13   ar
     9     6    10   ar
    10     6    14   ar
    11     7     9   ar
    12     7    15   ar
    13     8    10   ar
    14     8    16   ar
    15     9    11   ar
    16    10    12   ar
    17    11    19   ar
    18    12    20   ar
    19    13    22    1
    20    14    23    1
    21    15    17    1
    22    15    19   ar
    23    16    17    1
    24    16    20   ar
    25    17    21    2
    26    18    22    1
    27     1    24    1
    28     2    25    1
    29     3    26    1
    30     4    27    1
    31     5    28    1
    32     6    29    1
    33     7    30    1
    34     8    31    1
    35    18    32    1
    36    18    33    1
    37    18    34    1
    38    19    35    1
    39    20    36    1
