@<TRIPOS>MOLECULE
ChEBML248837
 62 65 0 0 0
SMALL
USER_CHARGES

@<TRIPOS>ATOM
      1 C          -2.6999   -0.7888   -4.0807 C.ar    1  LIG1       -0.0411
      2 C         -10.4097   -4.7010   -0.1941 C.ar    1  LIG1       -0.0383
      3 C         -11.7633   -4.9370   -0.2627 C.ar    1  LIG1       -0.0377
      4 C          -2.5763    0.5825   -3.9006 C.ar    1  LIG1       -0.0267
      5 C         -12.1688   -3.3500    1.5016 C.ar    1  LIG1       -0.0304
      6 C         -10.0060   -2.2468    2.3925 C.ar    1  LIG1       -0.0261
      7 C          -3.2517   -1.5565   -3.0754 C.ar    1  LIG1        0.0293
      8 C         -10.7922   -3.1003    1.5811 C.ar    1  LIG1       -0.0003
      9 C          -9.9077   -3.7831    0.7243 C.ar    1  LIG1        0.0379
     10 C         -12.6452   -4.2637    0.5835 C.ar    1  LIG1        0.0437
     11 C          -3.0159    1.1345   -2.7065 C.ar    1  LIG1        0.1152
     12 C          -8.7064   -2.4149    2.0330 C.ar    1  LIG1        0.0947
     13 C          -3.5587    0.2955   -1.7324 C.ar    1  LIG1        0.1505
     14 C          -7.5594   -1.7141    2.6295 C.2     1  LIG1        0.2598
     15 C          -4.7144    0.1681    1.7203 C.3     1  LIG1       -0.0185
     16 C          -5.8463   -0.7607   -0.3064 C.3     1  LIG1       -0.0185
     17 C          -5.2151   -1.0124    2.5583 C.3     1  LIG1        0.0162
     18 C          -6.3597   -1.9517    0.5088 C.3     1  LIG1        0.0162
     19 C          -4.5112   -0.2882    0.2738 C.3     1  LIG1        0.0268
     20 C          -2.1828    4.5532   -3.4747 C.3     1  LIG1       -0.0410
     21 C          -5.1521    1.6877   -0.8404 C.3     1  LIG1        0.0018
     22 C         -14.2109   -5.8601    2.8589 C.3     1  LIG1        0.0225
     23 C          -2.3260    3.0410   -3.6578 C.3     1  LIG1        0.0507
     24 N          -3.6624   -1.0057   -1.9480 N.ar    1  LIG1       -0.2386
     25 N          -8.6348   -3.3447    1.0142 N.ar    1  LIG1       -0.3101
     26 N          -6.4202   -1.5648    1.9248 N.am    1  LIG1       -0.2966
     27 N         -14.0192   -4.5164    0.5011 N.pl3   1  LIG1       -0.2633
     28 N          -3.9995    0.8328   -0.5258 N.pl3   1  LIG1       -0.3136
     29 O          -7.6388   -1.2690    3.7588 O.2     1  LIG1       -0.2702
     30 O         -16.0352   -5.7770    0.8906 O.2     1  LIG1       -0.4814
     31 O         -13.8786   -6.9201    0.4144 O.2     1  LIG1       -0.4814
     32 O          -2.9143    2.4728   -2.4860 O.3     1  LIG1       -0.3427
     33 S         -14.6379   -5.9321    1.0974 S.O2    1  LIG1       -0.1957
     34 H          -2.3676   -1.2501   -4.9990 H       1  LIG1        0.0640
     35 H          -9.7360   -5.2280   -0.8537 H       1  LIG1        0.0643
     36 H         -12.1468   -5.6501   -0.9775 H       1  LIG1        0.0643
     37 H          -2.1481    1.2048   -4.6725 H       1  LIG1        0.0652
     38 H         -12.8534   -2.8304    2.1556 H       1  LIG1        0.0650
     39 H         -10.3733   -1.5814    3.1596 H       1  LIG1        0.0651
     40 H          -3.3493   -2.6232   -3.2130 H       1  LIG1        0.0840
     41 H          -3.7680    0.5263    2.1252 H       1  LIG1        0.0302
     42 H          -5.4501    0.9719    1.7482 H       1  LIG1        0.0302
     43 H          -6.5712    0.0519   -0.2594 H       1  LIG1        0.0302
     44 H          -5.7053   -1.0635   -1.3440 H       1  LIG1        0.0302
     45 H          -4.4428   -1.7802    2.6061 H       1  LIG1        0.0470
     46 H          -5.4556   -0.6700    3.5649 H       1  LIG1        0.0470
     47 H          -5.6808   -2.7961    0.3893 H       1  LIG1        0.0470
     48 H          -7.3555   -2.2292    0.1629 H       1  LIG1        0.0470
     49 H          -3.7940   -1.1087    0.2494 H       1  LIG1        0.0506
     50 H          -1.7342    4.9866   -4.3686 H       1  LIG1        0.0254
     51 H          -3.1661    4.9942   -3.3115 H       1  LIG1        0.0254
     52 H          -1.5461    4.7561   -2.6136 H       1  LIG1        0.0254
     53 H          -5.6399    1.9948    0.0847 H       1  LIG1        0.0432
     54 H          -4.8125    2.5703   -1.3824 H       1  LIG1        0.0432
     55 H          -5.8589    1.1322   -1.4568 H       1  LIG1        0.0432
     56 H         -14.7401   -5.0303    3.3275 H       1  LIG1        0.0442
     57 H         -14.4997   -6.7939    3.3412 H       1  LIG1        0.0442
     58 H         -13.1362   -5.7128    2.9665 H       1  LIG1        0.0442
     59 H          -2.9628    2.8380   -4.5190 H       1  LIG1        0.0569
     60 H          -1.3427    2.6000   -3.8212 H       1  LIG1        0.0569
     61 H          -7.8218   -3.6413    0.5762 H       1  LIG1        0.1529
     62 H         -14.6091   -3.8625    0.0946 H       1  LIG1        0.1702
@<TRIPOS>BOND
     1     1     4   ar
     2     1     7   ar
     3     2     3   ar
     4     2     9   ar
     5     3    10   ar
     6     4    11   ar
     7     5     8   ar
     8     5    10   ar
     9     6     8   ar
    10     6    12   ar
    11     7    24   ar
    12     8     9   ar
    13     9    25   ar
    14    10    27    1
    15    11    13   ar
    16    11    32    1
    17    12    14    1
    18    12    25   ar
    19    13    24   ar
    20    13    28    1
    21    14    26   am
    22    14    29    2
    23    15    17    1
    24    15    19    1
    25    16    18    1
    26    16    19    1
    27    17    26    1
    28    18    26    1
    29    19    28    1
    30    20    23    1
    31    21    28    1
    32    22    33    1
    33    23    32    1
    34    27    33    1
    35    30    33    2
    36    31    33    2
    37     1    34    1
    38     2    35    1
    39     3    36    1
    40     4    37    1
    41     5    38    1
    42     6    39    1
    43     7    40    1
    44    15    41    1
    45    15    42    1
    46    16    43    1
    47    16    44    1
    48    17    45    1
    49    17    46    1
    50    18    47    1
    51    18    48    1
    52    19    49    1
    53    20    50    1
    54    20    51    1
    55    20    52    1
    56    21    53    1
    57    21    54    1
    58    21    55    1
    59    22    56    1
    60    22    57    1
    61    22    58    1
    62    23    59    1
    63    23    60    1
    64    25    61    1
    65    27    62    1
