@<TRIPOS>MOLECULE
ChEBML208532
 48 51 0 0 0
SMALL
USER_CHARGES

@<TRIPOS>ATOM
      1 C          -1.1313    1.7859   -5.4447 C.ar    1  LIG1       -0.0622
      2 C          -2.3741    1.2245   -5.6707 C.ar    1  LIG1       -0.0619
      3 C          -0.4919    1.5859   -4.2354 C.ar    1  LIG1       -0.0619
      4 C         -11.9423   -3.7339    1.8535 C.ar    1  LIG1       -0.0504
      5 C          -2.9775    0.4627   -4.6875 C.ar    1  LIG1       -0.0567
      6 C          -1.0973    0.8277   -3.2507 C.ar    1  LIG1       -0.0567
      7 C         -12.3400   -4.8991    1.2689 C.ar    1  LIG1       -0.0313
      8 C          -9.9293   -2.1355    2.1378 C.ar    1  LIG1       -0.0262
      9 C         -10.1509   -5.2120    0.3081 C.ar    1  LIG1       -0.0100
     10 C         -10.6295   -3.2753    1.6757 C.ar    1  LIG1       -0.0020
     11 C          -2.3378    0.2620   -3.4786 C.ar    1  LIG1       -0.0223
     12 C          -9.7276   -4.0229    0.8925 C.ar    1  LIG1        0.0404
     13 C         -11.4512   -5.6424    0.4924 C.ar    1  LIG1        0.0732
     14 C          -8.6624   -2.2013    1.6499 C.ar    1  LIG1        0.0947
     15 C          -7.6037   -1.2118    1.8920 C.2     1  LIG1        0.2598
     16 C          -4.6132    0.2354    0.6982 C.3     1  LIG1       -0.0107
     17 C          -5.7339   -1.0917   -1.1000 C.3     1  LIG1       -0.0107
     18 C          -5.2177   -0.6784    1.7689 C.3     1  LIG1        0.0169
     19 C          -6.3499   -2.0252   -0.0469 C.3     1  LIG1        0.0169
     20 C          -4.3913   -0.5674   -0.5857 C.3     1  LIG1        0.0610
     21 C          -2.9956   -0.5685   -2.4068 C.3     1  LIG1        0.0721
     22 N          -8.5290   -3.3486    0.8891 N.ar    1  LIG1       -0.3100
     23 N          -6.4341   -1.3001    1.2283 N.am    1  LIG1       -0.2965
     24 O          -7.7829   -0.3126    2.6918 O.2     1  LIG1       -0.2702
     25 O         -11.8654   -6.8014   -0.0824 O.3     1  LIG1       -0.3608
     26 O          -3.7977    0.2738   -1.5766 O.3     1  LIG1       -0.3733
     27 H          -0.6595    2.3805   -6.2130 H       1  LIG1        0.0622
     28 H          -2.8736    1.3807   -6.6154 H       1  LIG1        0.0623
     29 H           0.4792    2.0243   -4.0590 H       1  LIG1        0.0623
     30 H         -12.6375   -3.1646    2.4525 H       1  LIG1        0.0630
     31 H          -3.9484    0.0241   -4.8641 H       1  LIG1        0.0626
     32 H          -0.5995    0.6745   -2.3046 H       1  LIG1        0.0626
     33 H         -13.3520   -5.2497    1.4078 H       1  LIG1        0.0650
     34 H         -10.3301   -1.3532    2.7652 H       1  LIG1        0.0651
     35 H          -9.4668   -5.7950   -0.2908 H       1  LIG1        0.0670
     36 H          -5.2954    1.0614    0.4974 H       1  LIG1        0.0309
     37 H          -3.6596    0.6281    1.0511 H       1  LIG1        0.0309
     38 H          -6.4057   -0.2532   -1.2838 H       1  LIG1        0.0309
     39 H          -5.5781   -1.6436   -2.0270 H       1  LIG1        0.0309
     40 H          -5.4693   -0.0902    2.6515 H       1  LIG1        0.0470
     41 H          -4.4990   -1.4531    2.0362 H       1  LIG1        0.0470
     42 H          -5.7218   -2.9076    0.0754 H       1  LIG1        0.0470
     43 H          -7.3488   -2.3261   -0.3627 H       1  LIG1        0.0470
     44 H          -3.7286   -1.4077   -0.3787 H       1  LIG1        0.0604
     45 H          -2.2297   -1.0527   -1.8011 H       1  LIG1        0.0618
     46 H          -3.6255   -1.3275   -2.8707 H       1  LIG1        0.0618
     47 H          -7.7230   -3.6313    0.4293 H       1  LIG1        0.1529
     48 H         -11.6887   -7.5078    0.5539 H       1  LIG1        0.2182
@<TRIPOS>BOND
     1     1     2   ar
     2     1     3   ar
     3     2     5   ar
     4     3     6   ar
     5     4     7   ar
     6     4    10   ar
     7     5    11   ar
     8     6    11   ar
     9     7    13   ar
    10     8    10   ar
    11     8    14   ar
    12     9    12   ar
    13     9    13   ar
    14    10    12   ar
    15    11    21    1
    16    12    22   ar
    17    13    25    1
    18    14    15    1
    19    14    22   ar
    20    15    23   am
    21    15    24    2
    22    16    18    1
    23    16    20    1
    24    17    19    1
    25    17    20    1
    26    18    23    1
    27    19    23    1
    28    20    26    1
    29    21    26    1
    30     1    27    1
    31     2    28    1
    32     3    29    1
    33     4    30    1
    34     5    31    1
    35     6    32    1
    36     7    33    1
    37     8    34    1
    38     9    35    1
    39    16    36    1
    40    16    37    1
    41    17    38    1
    42    17    39    1
    43    18    40    1
    44    18    41    1
    45    19    42    1
    46    19    43    1
    47    20    44    1
    48    21    45    1
    49    21    46    1
    50    22    47    1
    51    25    48    1
