@<TRIPOS>MOLECULE
ChEBML749702
 33 36 0 0 0
SMALL
USER_CHARGES

@<TRIPOS>ATOM
      1 C         -12.4343   -4.9925    1.5044 C.ar    1  LIG1       -0.0615
      2 C         -11.5414   -5.5191    0.5674 C.ar    1  LIG1       -0.0596
      3 C         -12.1468   -3.8033    2.1880 C.ar    1  LIG1       -0.0522
      4 C         -10.3321   -4.8798    0.2790 C.ar    1  LIG1       -0.0306
      5 C          -1.9010   -0.5531   -3.1784 C.ar    1  LIG1       -0.0445
      6 C          -1.0998   -1.6972   -3.2103 C.ar    1  LIG1       -0.0422
      7 C         -10.2964   -1.9617    2.3722 C.ar    1  LIG1       -0.0176
      8 C          -2.2872   -2.6354   -1.3201 C.ar    1  LIG1       -0.0165
      9 C         -10.9362   -3.1433    1.9135 C.ar    1  LIG1        0.0080
     10 C          -3.1108   -1.4902   -1.2656 C.ar    1  LIG1        0.0805
     11 C         -10.0741   -3.6997    0.9741 C.ar    1  LIG1        0.0895
     12 C          -2.9019   -0.4686   -2.1972 C.ar    1  LIG1        0.0401
     13 C          -1.2887   -2.7261   -2.2942 C.ar    1  LIG1        0.0428
     14 C          -9.1039   -1.8772    1.6915 C.ar    1  LIG1        0.1266
     15 C          -4.6867   -0.0957   -0.6034 C.ar    1  LIG1        0.1354
     16 C          -8.0584   -0.9130    1.7404 C.2     1  LIG1        0.1961
     17 C          -6.8008   -1.0696    0.8442 C.3     1  LIG1        0.0658
     18 N          -4.1361   -1.2618   -0.3594 N.ar    1  LIG1       -0.2334
     19 O          -8.1238    0.0934    2.5027 O.2     1  LIG1       -0.2909
     20 O          -8.9596   -2.9268    0.8411 O.2     1  LIG1       -0.3060
     21 S          -4.0340    0.7990   -1.9070 S.2     1  LIG1       -0.0609
     22 S          -6.0311    0.5022    0.3751 S.3     1  LIG1       -0.0908
     23 CL         -0.2856   -4.1248   -2.3578 Cl      1  LIG1       -0.0842
     24 H         -13.3673   -5.5123    1.7069 H       1  LIG1        0.0623
     25 H         -11.7912   -6.4435    0.0524 H       1  LIG1        0.0623
     26 H         -12.8505   -3.4059    2.9132 H       1  LIG1        0.0630
     27 H          -9.6357   -5.2821   -0.4469 H       1  LIG1        0.0650
     28 H          -1.7479    0.2465   -3.8967 H       1  LIG1        0.0636
     29 H          -0.3227   -1.7683   -3.9681 H       1  LIG1        0.0639
     30 H         -10.6634   -1.2613    3.1097 H       1  LIG1        0.0659
     31 H          -2.4380   -3.4376   -0.6022 H       1  LIG1        0.0661
     32 H          -7.0902   -1.5920   -0.0718 H       1  LIG1        0.0470
     33 H          -6.0563   -1.6514    1.3944 H       1  LIG1        0.0470
@<TRIPOS>BOND
     1     1     2   ar
     2     1     3   ar
     3     2     4   ar
     4     3     9   ar
     5     4    11   ar
     6     5     6   ar
     7     5    12   ar
     8     6    13   ar
     9     7     9   ar
    10     7    14   ar
    11     8    10   ar
    12     8    13   ar
    13     9    11   ar
    14    10    12   ar
    15    10    18   ar
    16    11    20   ar
    17    12    21   ar
    18    13    23    1
    19    14    16    1
    20    14    20   ar
    21    15    18   ar
    22    15    21   ar
    23    15    22    1
    24    16    17    1
    25    16    19    2
    26    17    22    1
    27     1    24    1
    28     2    25    1
    29     3    26    1
    30     4    27    1
    31     5    28    1
    32     6    29    1
    33     7    30    1
    34     8    31    1
    35    17    32    1
    36    17    33    1
