@<TRIPOS>MOLECULE
ChEBML52301
 37 39 0 0 0
SMALL
USER_CHARGES

@<TRIPOS>ATOM
      1 C          -2.6421    1.4560   -3.4854 C.ar    1  LIG1        0.0000
      2 C          -1.6837    0.4608   -3.5406 C.ar    1  LIG1        0.0000
      3 C          -3.6858    1.3648   -2.5831 C.ar    1  LIG1        0.0000
      4 C         -10.0479   -1.8101    2.1547 C.ar    1  LIG1        0.0000
      5 C          -8.4942   -3.4220    1.2398 C.ar    1  LIG1        0.0000
      6 C         -11.0798   -2.7066    1.9829 C.ar    1  LIG1        0.0000
      7 C          -9.5248   -4.3212    1.0731 C.ar    1  LIG1        0.0000
      8 C          -6.4079   -2.0055   -0.0391 C.ar    1  LIG1        0.0000
      9 C          -5.1896   -0.8465    1.7025 C.ar    1  LIG1        0.0000
     10 C          -1.7671   -0.6277   -2.6943 C.ar    1  LIG1        0.0000
     11 C          -3.7772    0.2754   -1.7387 C.ar    1  LIG1        0.0000
     12 C          -5.2407   -2.1488   -0.7538 C.ar    1  LIG1        0.0000
     13 C          -4.0260   -0.9998    0.9839 C.ar    1  LIG1        0.0000
     14 C          -8.7484   -2.1616    1.7842 C.ar    1  LIG1        0.0000
     15 C          -6.3922   -1.3541    1.1990 C.ar    1  LIG1        0.0000
     16 C         -10.8259   -3.9677    1.4384 C.ar    1  LIG1        0.0000
     17 C          -2.8137   -0.7218   -1.7881 C.ar    1  LIG1        0.0000
     18 C          -4.0463   -1.6476   -0.2467 C.ar    1  LIG1        0.0000
     19 C          -7.6402   -1.1978    1.9679 C.2     1  LIG1        0.0000
     20 C         -11.9324   -4.9298    1.2545 C.2     1  LIG1        0.0000
     21 O         -13.0703   -4.6220    1.5789 O.co2   1  LIG1       -0.5000
     22 O          -7.7591   -0.2773    2.7529 O.2     1  LIG1        0.0000
     23 O         -11.7092   -6.0352    0.7825 O.co2   1  LIG1       -0.5000
     24 O          -2.8979   -1.7915   -0.9544 O.3     1  LIG1        0.0000
     25 H          -2.5751    2.3062   -4.1481 H       1  LIG1        0.0000
     26 H          -0.8692    0.5348   -4.2460 H       1  LIG1        0.0000
     27 H          -4.4327    2.1438   -2.5415 H       1  LIG1        0.0000
     28 H         -10.2442   -0.8351    2.5757 H       1  LIG1        0.0000
     29 H          -7.4890   -3.6936    0.9533 H       1  LIG1        0.0000
     30 H         -12.0851   -2.4344    2.2689 H       1  LIG1        0.0000
     31 H          -9.3274   -5.2978    0.6561 H       1  LIG1        0.0000
     32 H          -7.3347   -2.3957   -0.4331 H       1  LIG1        0.0000
     33 H          -5.1738   -0.3391    2.6557 H       1  LIG1        0.0000
     34 H          -1.0180   -1.4046   -2.7376 H       1  LIG1        0.0000
     35 H          -4.5954    0.2021   -1.0376 H       1  LIG1        0.0000
     36 H          -5.2519   -2.6516   -1.7096 H       1  LIG1        0.0000
     37 H          -3.0963   -0.6124    1.3740 H       1  LIG1        0.0000
@<TRIPOS>BOND
     1     1     2   ar
     2     1     3   ar
     3     2    10   ar
     4     3    11   ar
     5     4     6   ar
     6     4    14   ar
     7     5     7   ar
     8     5    14   ar
     9     6    16   ar
    10     7    16   ar
    11     8    12   ar
    12     8    15   ar
    13     9    13   ar
    14     9    15   ar
    15    10    17   ar
    16    11    17   ar
    17    12    18   ar
    18    13    18   ar
    19    14    19    1
    20    15    19    1
    21    16    20    1
    22    17    24    1
    23    18    24    1
    24    19    22    2
    25    20    21   ar
    26    20    23   ar
    27     1    25    1
    28     2    26    1
    29     3    27    1
    30     4    28    1
    31     5    29    1
    32     6    30    1
    33     7    31    1
    34     8    32    1
    35     9    33    1
    36    10    34    1
    37    11    35    1
    38    12    36    1
    39    13    37    1
