@<TRIPOS>MOLECULE
ChEBML925938
 52 55 0 0 0
SMALL
USER_CHARGES

@<TRIPOS>ATOM
      1 C          -3.7822    0.6900   -3.5709 C.ar    1  LIG1       -0.0613
      2 C          -4.4009    0.0993   -2.4854 C.ar    1  LIG1       -0.0561
      3 C          -2.4039    0.7920   -3.6100 C.ar    1  LIG1       -0.0500
      4 C         -11.6364   -5.3597    0.4215 C.ar    1  LIG1       -0.0566
      5 C         -10.3070   -5.0006    0.3695 C.ar    1  LIG1       -0.0303
      6 C         -12.1675   -3.4056    1.6928 C.ar    1  LIG1       -0.0490
      7 C          -2.2641   -0.2837   -1.4755 C.ar    1  LIG1       -0.0439
      8 C         -10.8234   -3.0262    1.6560 C.ar    1  LIG1        0.0113
      9 C          -3.6416   -0.3902   -1.4388 C.ar    1  LIG1       -0.0158
     10 C         -12.5609   -4.5640    1.0846 C.ar    1  LIG1       -0.0503
     11 C          -1.6449    0.3034   -2.5634 C.ar    1  LIG1        0.0558
     12 C         -10.0700   -1.8903    2.1858 C.ar    1  LIG1       -0.0049
     13 C          -9.8819   -3.8292    0.9858 C.ar    1  LIG1        0.0899
     14 C          -8.7798   -2.0862    1.8094 C.ar    1  LIG1        0.1482
     15 C          -7.6608   -1.1869    2.1247 C.2     1  LIG1        0.2696
     16 C          -5.6187   -1.6973   -0.7092 C.3     1  LIG1       -0.0039
     17 C          -4.6250    0.0320    0.7983 C.3     1  LIG1       -0.0039
     18 C          -6.2842   -2.3805    0.4896 C.3     1  LIG1        0.0176
     19 C          -5.2804   -0.6272    2.0100 C.3     1  LIG1        0.0176
     20 C          -4.3163   -1.0343   -0.2551 C.3     1  LIG1        0.0927
     21 C         -14.0094   -4.9777    1.1284 C.3     1  LIG1       -0.0397
     22 C         -10.6147   -0.7360    2.9870 C.3     1  LIG1       -0.0363
     23 C          -0.1425    0.4141   -2.6062 C.3     1  LIG1        0.4160
     24 N          -6.4528   -1.3921    1.5636 N.am    1  LIG1       -0.2958
     25 O          -7.8252   -0.2575    2.8923 O.2     1  LIG1       -0.2693
     26 O          -8.6802   -3.2317    1.1028 O.2     1  LIG1       -0.3039
     27 O          -3.4500   -2.0220    0.3069 O.3     1  LIG1       -0.3850
     28 F           0.2451    1.0425   -3.7944 F       1  LIG1       -0.1661
     29 F           0.3009    1.1676   -1.5141 F       1  LIG1       -0.1661
     30 F           0.4211   -0.8651   -2.5499 F       1  LIG1       -0.1661
     31 H          -4.3753    1.0717   -4.3887 H       1  LIG1        0.0623
     32 H          -5.4776    0.0197   -2.4548 H       1  LIG1        0.0626
     33 H          -1.9204    1.2529   -4.4587 H       1  LIG1        0.0629
     34 H         -11.9626   -6.2704   -0.0585 H       1  LIG1        0.0626
     35 H          -9.5969   -5.6281   -0.1486 H       1  LIG1        0.0651
     36 H         -12.8917   -2.7879    2.2031 H       1  LIG1        0.0633
     37 H          -1.6712   -0.6620   -0.6559 H       1  LIG1        0.0633
     38 H          -5.4005   -2.4402   -1.4763 H       1  LIG1        0.0316
     39 H          -6.2898   -0.9404   -1.1154 H       1  LIG1        0.0316
     40 H          -3.6994    0.5198    1.1042 H       1  LIG1        0.0316
     41 H          -5.3054    0.7725    0.3780 H       1  LIG1        0.0316
     42 H          -5.6541   -3.1977    0.8406 H       1  LIG1        0.0471
     43 H          -7.2590   -2.7688    0.1942 H       1  LIG1        0.0471
     44 H          -5.5930    0.1408    2.7175 H       1  LIG1        0.0471
     45 H          -4.5666   -1.2982    2.4878 H       1  LIG1        0.0471
     46 H         -14.5325   -4.5609    0.2677 H       1  LIG1        0.0280
     47 H         -14.0776   -6.0653    1.1033 H       1  LIG1        0.0280
     48 H         -14.4658   -4.6061    2.0459 H       1  LIG1        0.0280
     49 H         -10.9208    0.0628    2.3114 H       1  LIG1        0.0281
     50 H         -11.4746   -1.0703    3.5674 H       1  LIG1        0.0281
     51 H          -9.8428   -0.3656    3.6614 H       1  LIG1        0.0281
     52 H          -2.6433   -1.5638    0.5795 H       1  LIG1        0.2113
@<TRIPOS>BOND
     1     1     2   ar
     2     1     3   ar
     3     2     9   ar
     4     3    11   ar
     5     4     5   ar
     6     4    10   ar
     7     5    13   ar
     8     6     8   ar
     9     6    10   ar
    10     7     9   ar
    11     7    11   ar
    12     8    12   ar
    13     8    13   ar
    14     9    20    1
    15    10    21    1
    16    11    23    1
    17    12    14   ar
    18    12    22    1
    19    13    26   ar
    20    14    15    1
    21    14    26   ar
    22    15    24   am
    23    15    25    2
    24    16    18    1
    25    16    20    1
    26    17    19    1
    27    17    20    1
    28    18    24    1
    29    19    24    1
    30    20    27    1
    31    23    28    1
    32    23    29    1
    33    23    30    1
    34     1    31    1
    35     2    32    1
    36     3    33    1
    37     4    34    1
    38     5    35    1
    39     6    36    1
    40     7    37    1
    41    16    38    1
    42    16    39    1
    43    17    40    1
    44    17    41    1
    45    18    42    1
    46    18    43    1
    47    19    44    1
    48    19    45    1
    49    21    46    1
    50    21    47    1
    51    21    48    1
    52    22    49    1
    53    22    50    1
    54    22    51    1
    55    27    52    1
