@<TRIPOS>MOLECULE
ChEBML430580
 51 54 0 0 0
SMALL
USER_CHARGES

@<TRIPOS>ATOM
      1 C         -10.2908   -5.1535    0.3564 C.ar    1  LIG1       -0.0387
      2 C         -11.6273   -5.5363    0.5010 C.ar    1  LIG1       -0.0416
      3 C         -12.1016   -3.5786    1.8573 C.ar    1  LIG1       -0.0343
      4 C         -10.0075   -2.0621    2.2025 C.ar    1  LIG1       -0.0262
      5 C         -10.7588   -3.1725    1.7256 C.ar    1  LIG1       -0.0007
      6 C          -9.8861   -3.9677    0.9797 C.ar    1  LIG1        0.0379
      7 C         -12.5205   -4.7625    1.2394 C.ar    1  LIG1        0.0413
      8 C          -8.7172   -2.2022    1.7457 C.ar    1  LIG1        0.0945
      9 C          -7.5558   -1.3044    1.9740 C.2     1  LIG1        0.2580
     10 C          -4.1245   -1.7273    0.7457 C.2     1  LIG1        0.2379
     11 C          -4.3804    0.6489    3.2007 C.3     1  LIG1       -0.0507
     12 C          -5.3316    1.3524    2.2491 C.3     1  LIG1       -0.0507
     13 C          -4.6909   -0.8313    2.9952 C.3     1  LIG1       -0.0229
     14 C          -5.2816    0.4782    1.0024 C.3     1  LIG1       -0.0229
     15 C          -4.7658    0.4337   -2.0578 C.3     1  LIG1       -0.0110
     16 C          -2.3394   -0.2278   -1.9907 C.3     1  LIG1       -0.0110
     17 C          -5.1256   -0.8968   -1.4030 C.3     1  LIG1        0.0166
     18 C          -2.7414   -1.5466   -1.3390 C.3     1  LIG1        0.0166
     19 C          -3.4691    0.3260   -2.8604 C.3     1  LIG1        0.0570
     20 C          -5.1402   -0.9433    1.5378 C.3     1  LIG1        0.1108
     21 N          -8.6539   -3.3544    1.0089 N.ar    1  LIG1       -0.3101
     22 N          -4.0015   -1.4048   -0.6054 N.am    1  LIG1       -0.2998
     23 N          -6.3585   -1.6945    1.3877 N.am    1  LIG1       -0.2959
     24 O          -7.7004   -0.3008    2.6669 O.2     1  LIG1       -0.2704
     25 O          -3.4595   -2.5981    1.3130 O.2     1  LIG1       -0.2749
     26 O          -3.1187    1.6182   -3.3412 O.3     1  LIG1       -0.3929
     27 CL        -14.1608   -5.2666    1.3935 Cl      1  LIG1       -0.0843
     28 H          -9.5962   -5.7573   -0.2182 H       1  LIG1        0.0643
     29 H         -11.9595   -6.4558    0.0236 H       1  LIG1        0.0639
     30 H         -12.7970   -2.9743    2.4340 H       1  LIG1        0.0645
     31 H         -10.3756   -1.2493    2.8143 H       1  LIG1        0.0651
     32 H          -3.3415    0.8566    2.9181 H       1  LIG1        0.0267
     33 H          -4.5207    0.9614    4.2396 H       1  LIG1        0.0267
     34 H          -6.3464    1.3649    2.6643 H       1  LIG1        0.0267
     35 H          -5.0306    2.3840    2.0452 H       1  LIG1        0.0267
     36 H          -3.8132   -1.4442    3.2286 H       1  LIG1        0.0294
     37 H          -5.4892   -1.1289    3.6868 H       1  LIG1        0.0294
     38 H          -6.1649    0.6328    0.3735 H       1  LIG1        0.0294
     39 H          -4.4043    0.7598    0.4055 H       1  LIG1        0.0294
     40 H          -5.5813    0.7696   -2.7092 H       1  LIG1        0.0309
     41 H          -4.6553    1.2090   -1.2881 H       1  LIG1        0.0309
     42 H          -2.0807    0.5075   -1.2175 H       1  LIG1        0.0309
     43 H          -1.4339   -0.3630   -2.5937 H       1  LIG1        0.0309
     44 H          -6.0295   -0.7723   -0.8044 H       1  LIG1        0.0470
     45 H          -5.3453   -1.6511   -2.1680 H       1  LIG1        0.0470
     46 H          -2.8921   -2.3208   -2.1008 H       1  LIG1        0.0470
     47 H          -1.9406   -1.8907   -0.6770 H       1  LIG1        0.0470
     48 H          -3.6280   -0.3247   -3.7286 H       1  LIG1        0.0601
     49 H          -7.8244   -3.7071    0.5515 H       1  LIG1        0.1529
     50 H          -6.3057   -2.5744    0.8794 H       1  LIG1        0.1508
     51 H          -2.2951    1.5146   -3.8440 H       1  LIG1        0.2104
@<TRIPOS>BOND
     1     1     2   ar
     2     1     6   ar
     3     2     7   ar
     4     3     5   ar
     5     3     7   ar
     6     4     5   ar
     7     4     8   ar
     8     5     6   ar
     9     6    21   ar
    10     7    27    1
    11     8     9    1
    12     8    21   ar
    13     9    23   am
    14     9    24    2
    15    10    20    1
    16    10    22   am
    17    10    25    2
    18    11    12    1
    19    11    13    1
    20    12    14    1
    21    13    20    1
    22    14    20    1
    23    15    17    1
    24    15    19    1
    25    16    18    1
    26    16    19    1
    27    17    22    1
    28    18    22    1
    29    19    26    1
    30    20    23    1
    31     1    28    1
    32     2    29    1
    33     3    30    1
    34     4    31    1
    35    11    32    1
    36    11    33    1
    37    12    34    1
    38    12    35    1
    39    13    36    1
    40    13    37    1
    41    14    38    1
    42    14    39    1
    43    15    40    1
    44    15    41    1
    45    16    42    1
    46    16    43    1
    47    17    44    1
    48    17    45    1
    49    18    46    1
    50    18    47    1
    51    19    48    1
    52    21    49    1
    53    23    50    1
    54    26    51    1
