@<TRIPOS>MOLECULE
ChEBML801786
 39 43 0 0 0
SMALL
USER_CHARGES

@<TRIPOS>ATOM
      1 C          -2.4107   -0.3005   -1.9438 C.ar    1  LIG1       -0.0619
      2 C          -3.5767   -0.1214   -2.6851 C.ar    1  LIG1       -0.0619
      3 C          -2.4801   -0.8048   -0.6460 C.ar    1  LIG1       -0.0586
      4 C          -4.8140   -0.4485   -2.1300 C.ar    1  LIG1       -0.0572
      5 C         -10.3154   -5.0561    0.2783 C.ar    1  LIG1       -0.0390
      6 C         -11.6273   -5.4350    0.5765 C.ar    1  LIG1       -0.0461
      7 C         -11.8864   -3.5552    2.0907 C.ar    1  LIG1       -0.0366
      8 C          -8.9680   -0.2322    3.2757 C.ar    1  LIG1        0.1180
      9 C         -10.5658   -3.1531    1.8061 C.ar    1  LIG1        0.0247
     10 C          -3.7206   -1.1192   -0.0795 C.ar    1  LIG1       -0.0416
     11 C          -4.8962   -0.9435   -0.8215 C.ar    1  LIG1       -0.0274
     12 C          -9.7374   -2.0800    2.2390 C.ar    1  LIG1        0.0988
     13 C          -9.8114   -3.9118    0.9072 C.ar    1  LIG1        0.0401
     14 C          -8.5083   -2.2056    1.6017 C.ar    1  LIG1        0.0981
     15 C         -12.4025   -4.6976    1.4687 C.ar    1  LIG1        0.0183
     16 C          -7.5008   -1.2874    1.8405 C.ar    1  LIG1        0.1459
     17 C          -3.8252   -1.6862    1.3039 C.3     1  LIG1       -0.0116
     18 C          -6.2330   -1.3523   -0.2493 C.3     1  LIG1        0.0383
     19 C          -5.0689   -1.1455    2.0056 C.3     1  LIG1        0.0173
     20 N         -10.0075   -1.0739    3.1083 N.ar    1  LIG1       -0.2341
     21 N          -7.7455   -0.2766    2.7020 N.ar    1  LIG1       -0.2194
     22 N          -8.5730   -3.3163    0.8025 N.ar    1  LIG1       -0.3097
     23 N          -6.2820   -1.3955    1.2211 N.pl3   1  LIG1       -0.3094
     24 BR        -14.1744   -5.2434    1.8465 Br      1  LIG1       -0.0508
     25 H          -1.4470   -0.0527   -2.3794 H       1  LIG1        0.0623
     26 H          -3.5220    0.2653   -3.6985 H       1  LIG1        0.0623
     27 H          -1.5632   -0.9495   -0.0808 H       1  LIG1        0.0625
     28 H          -5.7137   -0.3199   -2.7264 H       1  LIG1        0.0626
     29 H          -9.7126   -5.6318   -0.4161 H       1  LIG1        0.0643
     30 H         -12.0327   -6.3221    0.0944 H       1  LIG1        0.0635
     31 H         -12.4889   -2.9777    2.7870 H       1  LIG1        0.0642
     32 H          -9.1340    0.5905    3.9627 H       1  LIG1        0.1063
     33 H          -3.8699   -2.7799    1.2344 H       1  LIG1        0.0332
     34 H          -2.9405   -1.4254    1.8962 H       1  LIG1        0.0332
     35 H          -6.9886   -0.6406   -0.6082 H       1  LIG1        0.0520
     36 H          -6.4931   -2.3434   -0.6407 H       1  LIG1        0.0520
     37 H          -5.1520   -1.6235    2.9898 H       1  LIG1        0.0472
     38 H          -4.9685   -0.0651    2.1735 H       1  LIG1        0.0472
     39 H          -7.8205   -3.6541    0.2183 H       1  LIG1        0.1530
@<TRIPOS>BOND
     1     1     2   ar
     2     1     3   ar
     3     2     4   ar
     4     3    10   ar
     5     4    11   ar
     6     5     6   ar
     7     5    13   ar
     8     6    15   ar
     9     7     9   ar
    10     7    15   ar
    11     8    20   ar
    12     8    21   ar
    13     9    12   ar
    14     9    13   ar
    15    10    11   ar
    16    10    17    1
    17    11    18    1
    18    12    14   ar
    19    12    20   ar
    20    13    22   ar
    21    14    16   ar
    22    14    22   ar
    23    15    24    1
    24    16    21   ar
    25    16    23    1
    26    17    19    1
    27    18    23    1
    28    19    23    1
    29     1    25    1
    30     2    26    1
    31     3    27    1
    32     4    28    1
    33     5    29    1
    34     6    30    1
    35     7    31    1
    36     8    32    1
    37    17    33    1
    38    17    34    1
    39    18    35    1
    40    18    36    1
    41    19    37    1
    42    19    38    1
    43    22    39    1
