@<TRIPOS>MOLECULE
ChEBML501766
 55 59 0 0 0
SMALL
USER_CHARGES

@<TRIPOS>ATOM
      1 C         -10.2751   -5.2694    0.6964 C.ar    1  LIG1       -0.0376
      2 C         -11.6132   -5.5797    0.7779 C.ar    1  LIG1       -0.0299
      3 C         -12.0977   -3.4213    1.7222 C.ar    1  LIG1       -0.0226
      4 C          -9.9976   -1.9367    1.9965 C.ar    1  LIG1       -0.0261
      5 C         -10.7378   -3.0914    1.6453 C.ar    1  LIG1        0.0004
      6 C          -9.8210   -4.0259    1.1270 C.ar    1  LIG1        0.0380
      7 C         -12.5254   -4.6583    1.2896 C.ar    1  LIG1        0.0761
      8 C          -8.6933   -2.1745    1.6993 C.ar    1  LIG1        0.0947
      9 C          -7.5854   -1.2304    1.9085 C.2     1  LIG1        0.2599
     10 C         -18.3761   -4.4612   -3.5218 C.3     1  LIG1       -0.0055
     11 C         -18.8444   -3.3590   -2.5697 C.3     1  LIG1       -0.0055
     12 C         -14.4150   -5.0891   -0.9853 C.3     1  LIG1        0.0135
     13 C         -15.9749   -4.0682    0.6725 C.3     1  LIG1        0.0135
     14 C          -5.2371   -0.5842    1.5692 C.3     1  LIG1        0.0381
     15 C          -6.2783   -2.4232    0.2007 C.3     1  LIG1        0.0381
     16 C         -15.1886   -4.3653   -2.0894 C.3     1  LIG1       -0.0315
     17 C         -16.6907   -3.3823   -0.4931 C.3     1  LIG1       -0.0315
     18 C          -4.6365   -0.0853    0.2504 C.3     1  LIG1        0.0625
     19 C          -5.5912   -1.7652   -1.0059 C.3     1  LIG1        0.0625
     20 C         -17.3489   -3.5967   -2.7879 C.3     1  LIG1       -0.0229
     21 C         -14.5017   -4.2751    0.3090 C.3     1  LIG1        0.0741
     22 N          -8.5746   -3.4422    1.1640 N.ar    1  LIG1       -0.3101
     23 N          -6.4199   -1.4034    1.2542 N.am    1  LIG1       -0.2921
     24 N         -16.5947   -4.2218   -1.6933 N.4     1  LIG1        0.2483
     25 O          -7.7192   -0.2961    2.6759 O.2     1  LIG1       -0.2701
     26 O          -4.3479   -1.1980   -0.5951 O.3     1  LIG1       -0.3781
     27 O         -13.8441   -4.9816    1.3628 O.3     1  LIG1       -0.3423
     28 H          -9.5770   -5.9909    0.2985 H       1  LIG1        0.0643
     29 H         -11.9598   -6.5460    0.4426 H       1  LIG1        0.0651
     30 H         -12.8071   -2.7100    2.1188 H       1  LIG1        0.0657
     31 H         -10.3979   -1.0296    2.4246 H       1  LIG1        0.0651
     32 H         -18.5051   -4.2913   -4.5907 H       1  LIG1        0.0326
     33 H         -18.4921   -5.4938   -3.1923 H       1  LIG1        0.0326
     34 H         -19.2688   -3.6664   -1.6139 H       1  LIG1        0.0326
     35 H         -19.2817   -2.4639   -3.0122 H       1  LIG1        0.0326
     36 H         -13.3709   -5.1930   -1.2806 H       1  LIG1        0.0348
     37 H         -14.8483   -6.0761   -0.8242 H       1  LIG1        0.0348
     38 H         -16.4407   -5.0341    0.8679 H       1  LIG1        0.0348
     39 H         -16.0459   -3.4425    1.5622 H       1  LIG1        0.0348
     40 H          -5.5316    0.2662    2.1843 H       1  LIG1        0.0493
     41 H          -4.5028   -1.1879    2.1026 H       1  LIG1        0.0493
     42 H          -5.6703   -3.2498    0.5682 H       1  LIG1        0.0493
     43 H          -7.2624   -2.7905   -0.0904 H       1  LIG1        0.0493
     44 H         -14.7542   -3.3785   -2.2499 H       1  LIG1        0.0815
     45 H         -15.1287   -4.9420   -3.0124 H       1  LIG1        0.0815
     46 H         -16.2245   -2.4165   -0.6875 H       1  LIG1        0.0815
     47 H         -17.7399   -3.2333   -0.2375 H       1  LIG1        0.0815
     48 H          -5.3489    0.5732   -0.2467 H       1  LIG1        0.0583
     49 H          -3.7171    0.4634    0.4548 H       1  LIG1        0.0583
     50 H          -6.2322   -0.9813   -1.4091 H       1  LIG1        0.0583
     51 H          -5.4109   -2.5171   -1.7742 H       1  LIG1        0.0583
     52 H         -16.8021   -2.8579   -3.3738 H       1  LIG1        0.0852
     53 H         -14.0225   -3.3068    0.1649 H       1  LIG1        0.0613
     54 H          -7.7487   -3.8542    0.8653 H       1  LIG1        0.1529
     55 H         -16.9824   -5.1325   -1.4974 H       1  LIG1        0.2006
@<TRIPOS>BOND
     1     1     2   ar
     2     1     6   ar
     3     2     7   ar
     4     3     5   ar
     5     3     7   ar
     6     4     5   ar
     7     4     8   ar
     8     5     6   ar
     9     6    22   ar
    10     7    27    1
    11     8     9    1
    12     8    22   ar
    13     9    23   am
    14     9    25    2
    15    10    11    1
    16    10    20    1
    17    11    20    1
    18    12    16    1
    19    12    21    1
    20    13    17    1
    21    13    21    1
    22    14    18    1
    23    14    23    1
    24    15    19    1
    25    15    23    1
    26    16    24    1
    27    17    24    1
    28    18    26    1
    29    19    26    1
    30    20    24    1
    31    21    27    1
    32     1    28    1
    33     2    29    1
    34     3    30    1
    35     4    31    1
    36    10    32    1
    37    10    33    1
    38    11    34    1
    39    11    35    1
    40    12    36    1
    41    12    37    1
    42    13    38    1
    43    13    39    1
    44    14    40    1
    45    14    41    1
    46    15    42    1
    47    15    43    1
    48    16    44    1
    49    16    45    1
    50    17    46    1
    51    17    47    1
    52    18    48    1
    53    18    49    1
    54    19    50    1
    55    19    51    1
    56    20    52    1
    57    21    53    1
    58    22    54    1
    59    24    55    1
