@<TRIPOS>MOLECULE
ChEBML62248
 58 63 0 0 0
SMALL
USER_CHARGES

@<TRIPOS>ATOM
      1 C         -11.5513   -5.7862    0.4718 C.ar    1  LIG1       -0.0615
      2 C         -12.5604   -4.8884    0.7880 C.ar    1  LIG1       -0.0611
      3 C           0.3223   -1.5515   -3.6433 C.ar    1  LIG1       -0.0594
      4 C         -10.2105   -5.4276    0.6345 C.ar    1  LIG1       -0.0519
      5 C          -0.3109   -0.3284   -3.8611 C.ar    1  LIG1       -0.0585
      6 C          -0.2676   -2.5038   -2.8165 C.ar    1  LIG1       -0.0315
      7 C         -12.2535   -3.6153    1.2716 C.ar    1  LIG1       -0.0475
      8 C          -9.8629   -4.1438    1.1238 C.ar    1  LIG1        0.0112
      9 C          -1.5438   -0.0448   -3.2547 C.ar    1  LIG1       -0.0416
     10 C          -2.1319   -1.0052   -2.4005 C.ar    1  LIG1       -0.0057
     11 C          -8.5886   -3.5396    1.3778 C.ar    1  LIG1        0.0618
     12 C          -1.4907   -2.2355   -2.2020 C.ar    1  LIG1        0.0786
     13 C         -10.9012   -3.2559    1.4350 C.ar    1  LIG1        0.0216
     14 C          -8.6870   -2.2618    1.8556 C.ar    1  LIG1        0.0976
     15 C          -7.5533   -1.4357    2.1903 C.ar    1  LIG1        0.2622
     16 C          -6.1621   -3.4273    1.4736 C.ar    1  LIG1        0.3120
     17 C          -2.1729    1.3155   -3.4908 C.3     1  LIG1       -0.0270
     18 C          -3.5956    1.4789   -2.9353 C.3     1  LIG1       -0.0406
     19 C          -3.7944   -1.2517   -0.4025 C.3     1  LIG1       -0.0266
     20 C          -5.0331    0.8230   -0.8883 C.3     1  LIG1       -0.0305
     21 C          -3.4796   -0.7266   -1.7949 C.3     1  LIG1        0.0337
     22 C          -3.6930    0.7722   -1.5950 C.3     1  LIG1        0.0103
     23 C          -2.8769   -4.1658   -2.1102 C.3     1  LIG1        0.0422
     24 C          -5.0861   -1.3797    2.2791 C.3     1  LIG1        0.0631
     25 C          -5.0200   -0.0928    1.4785 C.3     1  LIG1       -0.0175
     26 N          -7.3427   -4.1094    1.1898 N.ar    1  LIG1       -0.2668
     27 N          -6.3353   -2.1112    1.9713 N.ar    1  LIG1       -0.2153
     28 N          -4.9976   -0.4080    0.0166 N.4     1  LIG1        0.2479
     29 O          -7.6534   -0.2849    2.6118 O.2     1  LIG1       -0.2704
     30 O          -5.0640   -3.9617    1.2916 O.2     1  LIG1       -0.2532
     31 O          -2.0369   -3.2266   -1.4425 O.3     1  LIG1       -0.3490
     32 S         -10.2901   -1.7469    2.0136 S.2     1  LIG1       -0.0819
     33 H         -11.8024   -6.7741    0.0959 H       1  LIG1        0.0623
     34 H         -13.6001   -5.1764    0.6584 H       1  LIG1        0.0623
     35 H           1.2751   -1.7617   -4.1204 H       1  LIG1        0.0623
     36 H          -9.4346   -6.1459    0.3811 H       1  LIG1        0.0630
     37 H           0.1634    0.4066   -4.5068 H       1  LIG1        0.0625
     38 H           0.2280   -3.4586   -2.6617 H       1  LIG1        0.0650
     39 H         -13.0503   -2.9186    1.5163 H       1  LIG1        0.0635
     40 H          -1.5267    2.0625   -3.0112 H       1  LIG1        0.0316
     41 H          -2.1859    1.5344   -4.5652 H       1  LIG1        0.0316
     42 H          -3.8390    2.5429   -2.8391 H       1  LIG1        0.0275
     43 H          -4.3169    1.0494   -3.6425 H       1  LIG1        0.0275
     44 H          -4.1108   -2.2975   -0.3731 H       1  LIG1        0.0821
     45 H          -2.9833   -1.0701    0.3121 H       1  LIG1        0.0821
     46 H          -5.1719    1.7226   -0.2817 H       1  LIG1        0.0818
     47 H          -5.8809    0.6872   -1.5679 H       1  LIG1        0.0818
     48 H          -4.2303   -1.1229   -2.4956 H       1  LIG1        0.0413
     49 H          -2.9270    1.1843   -0.9201 H       1  LIG1        0.0365
     50 H          -3.2460   -4.9011   -1.3912 H       1  LIG1        0.0535
     51 H          -2.3103   -4.6654   -2.9001 H       1  LIG1        0.0535
     52 H          -3.7233   -3.6345   -2.5518 H       1  LIG1        0.0535
     53 H          -4.2325   -2.0295    2.0597 H       1  LIG1        0.0531
     54 H          -5.0768   -1.1557    3.3506 H       1  LIG1        0.0531
     55 H          -4.1024    0.4625    1.6928 H       1  LIG1        0.0831
     56 H          -5.8882    0.5505    1.6505 H       1  LIG1        0.0831
     57 H          -7.2867   -5.0580    0.8324 H       1  LIG1        0.1574
     58 H          -5.8439   -0.9564   -0.1898 H       1  LIG1        0.2004
@<TRIPOS>BOND
     1     1     2   ar
     2     1     4   ar
     3     2     7   ar
     4     3     5   ar
     5     3     6   ar
     6     4     8   ar
     7     5     9   ar
     8     6    12   ar
     9     7    13   ar
    10     8    11   ar
    11     8    13   ar
    12     9    10   ar
    13     9    17    1
    14    10    12   ar
    15    10    21    1
    16    11    14   ar
    17    11    26   ar
    18    12    31    1
    19    13    32   ar
    20    14    15   ar
    21    14    32   ar
    22    15    27   ar
    23    15    29    2
    24    16    26   ar
    25    16    27   ar
    26    16    30    2
    27    17    18    1
    28    18    22    1
    29    19    21    1
    30    19    28    1
    31    20    22    1
    32    20    28    1
    33    21    22    1
    34    23    31    1
    35    24    25    1
    36    24    27    1
    37    25    28    1
    38     1    33    1
    39     2    34    1
    40     3    35    1
    41     4    36    1
    42     5    37    1
    43     6    38    1
    44     7    39    1
    45    17    40    1
    46    17    41    1
    47    18    42    1
    48    18    43    1
    49    19    44    1
    50    19    45    1
    51    20    46    1
    52    20    47    1
    53    21    48    1
    54    22    49    1
    55    23    50    1
    56    23    51    1
    57    23    52    1
    58    24    53    1
    59    24    54    1
    60    25    55    1
    61    25    56    1
    62    26    57    1
    63    28    58    1
