@<TRIPOS>MOLECULE
ChEBML369968
 49 53 0 0 0
SMALL
USER_CHARGES

@<TRIPOS>ATOM
      1 C          -0.4255    0.4198   -3.3721 C.ar    1  LIG1       -0.0622
      2 C          -0.8392    1.1114   -2.2337 C.ar    1  LIG1       -0.0620
      3 C          -1.3688   -0.1899   -4.1991 C.ar    1  LIG1       -0.0620
      4 C          -2.1964    1.1932   -1.9222 C.ar    1  LIG1       -0.0590
      5 C          -2.7260   -0.1082   -3.8876 C.ar    1  LIG1       -0.0590
      6 C         -10.5919   -5.1093    0.5769 C.ar    1  LIG1       -0.0382
      7 C         -11.9510   -5.3487    0.8496 C.ar    1  LIG1       -0.0366
      8 C          -9.9225   -1.9427    2.2101 C.ar    1  LIG1       -0.0240
      9 C         -14.0884   -3.1686    2.7605 C.ar    1  LIG1        0.0851
     10 C         -10.7181   -3.0206    1.8262 C.ar    1  LIG1        0.0255
     11 C          -3.1399    0.5834   -2.7491 C.ar    1  LIG1       -0.0477
     12 C         -12.0912   -3.2449    2.1119 C.ar    1  LIG1        0.0950
     13 C         -10.0155   -3.9405    1.0802 C.ar    1  LIG1        0.0401
     14 C         -12.6498   -4.4050    1.6083 C.ar    1  LIG1        0.0578
     15 C          -8.6796   -2.2181    1.6745 C.ar    1  LIG1        0.0948
     16 C          -7.4846   -1.4318    1.7709 C.2     1  LIG1        0.2598
     17 C          -6.5670   -0.7015   -1.6234 C.3     1  LIG1       -0.0341
     18 C          -4.6334   -0.2496   -0.0652 C.3     1  LIG1       -0.0341
     19 C          -7.0370   -1.8041   -0.6765 C.3     1  LIG1        0.0147
     20 C          -5.1431   -1.3680    0.8405 C.3     1  LIG1        0.0147
     21 C          -5.0478   -0.4889   -1.5260 C.3     1  LIG1       -0.0344
     22 C          -4.6034    0.6710   -2.4136 C.3     1  LIG1       -0.0249
     23 N         -12.9666   -2.4820    2.8194 N.ar    1  LIG1       -0.2387
     24 N         -13.9497   -4.3317    2.0447 N.ar    1  LIG1       -0.3039
     25 N          -8.7433   -3.4192    0.9975 N.ar    1  LIG1       -0.3100
     26 N          -6.5958   -1.5305    0.6922 N.am    1  LIG1       -0.2967
     27 O          -7.2815   -0.7237    2.7555 O.2     1  LIG1       -0.2702
     28 H           0.6313    0.3574   -3.6152 H       1  LIG1        0.0622
     29 H          -0.1049    1.5873   -1.5903 H       1  LIG1        0.0623
     30 H          -1.0472   -0.7276   -5.0861 H       1  LIG1        0.0623
     31 H          -2.5097    1.7341   -1.0330 H       1  LIG1        0.0625
     32 H          -3.4539   -0.5865   -4.5377 H       1  LIG1        0.0625
     33 H         -10.0128   -5.8173   -0.0070 H       1  LIG1        0.0643
     34 H         -12.4387   -6.2442    0.4781 H       1  LIG1        0.0644
     35 H         -10.1914   -1.0741    2.7953 H       1  LIG1        0.0652
     36 H         -15.0298   -2.8870    3.2103 H       1  LIG1        0.1014
     37 H          -6.8465   -0.9587   -2.6518 H       1  LIG1        0.0285
     38 H          -7.0854    0.2330   -1.3721 H       1  LIG1        0.0285
     39 H          -5.0396    0.7095    0.2814 H       1  LIG1        0.0285
     40 H          -3.5417   -0.1852    0.0108 H       1  LIG1        0.0285
     41 H          -8.1268   -1.8932   -0.7247 H       1  LIG1        0.0469
     42 H          -6.6144   -2.7717   -0.9719 H       1  LIG1        0.0469
     43 H          -4.6787   -2.3235    0.5685 H       1  LIG1        0.0469
     44 H          -4.8626   -1.1548    1.8748 H       1  LIG1        0.0469
     45 H          -4.5482   -1.3995   -1.8826 H       1  LIG1        0.0307
     46 H          -4.8145    1.6188   -1.9079 H       1  LIG1        0.0319
     47 H          -5.1976    0.6748   -3.3333 H       1  LIG1        0.0319
     48 H         -14.6771   -5.0119    1.8692 H       1  LIG1        0.1537
     49 H          -7.9699   -3.8535    0.5125 H       1  LIG1        0.1529
@<TRIPOS>BOND
     1     1     2   ar
     2     1     3   ar
     3     2     4   ar
     4     3     5   ar
     5     4    11   ar
     6     5    11   ar
     7     6     7   ar
     8     6    13   ar
     9     7    14   ar
    10     8    10   ar
    11     8    15   ar
    12     9    23   ar
    13     9    24   ar
    14    10    12   ar
    15    10    13   ar
    16    11    22    1
    17    12    14   ar
    18    12    23   ar
    19    13    25   ar
    20    14    24   ar
    21    15    16    1
    22    15    25   ar
    23    16    26   am
    24    16    27    2
    25    17    19    1
    26    17    21    1
    27    18    20    1
    28    18    21    1
    29    19    26    1
    30    20    26    1
    31    21    22    1
    32     1    28    1
    33     2    29    1
    34     3    30    1
    35     4    31    1
    36     5    32    1
    37     6    33    1
    38     7    34    1
    39     8    35    1
    40     9    36    1
    41    17    37    1
    42    17    38    1
    43    18    39    1
    44    18    40    1
    45    19    41    1
    46    19    42    1
    47    20    43    1
    48    20    44    1
    49    21    45    1
    50    22    46    1
    51    22    47    1
    52    24    48    1
    53    25    49    1
