@<TRIPOS>MOLECULE
ChEBML887726
 31 33 0 0 0
SMALL
USER_CHARGES

@<TRIPOS>ATOM
      1 C         -12.4109   -4.6973    1.2863 C.ar    1  LIG1       -0.0615
      2 C         -11.4929   -5.5832    0.7356 C.ar    1  LIG1       -0.0603
      3 C         -12.0108   -3.4737    1.7381 C.ar    1  LIG1       -0.0530
      4 C         -10.1626   -5.2432    0.6355 C.ar    1  LIG1       -0.0402
      5 C          -9.9467   -1.9392    2.0155 C.ar    1  LIG1       -0.0262
      6 C         -10.6625   -3.1039    1.6471 C.ar    1  LIG1       -0.0022
      7 C          -9.7300   -3.9998    1.0887 C.ar    1  LIG1        0.0378
      8 C          -8.6422   -2.1349    1.6896 C.ar    1  LIG1        0.0947
      9 C          -7.5555   -1.1676    1.9037 C.2     1  LIG1        0.2599
     10 C          -5.2309   -0.4519    1.5410 C.3     1  LIG1        0.0381
     11 C          -6.2488   -2.2823    0.1437 C.3     1  LIG1        0.0381
     12 C          -4.6669    0.0955    0.2254 C.3     1  LIG1        0.0625
     13 C          -5.6003   -1.5764   -1.0572 C.3     1  LIG1        0.0625
     14 N          -8.5006   -3.3854    1.1197 N.ar    1  LIG1       -0.3101
     15 N          -6.3978   -1.2936    1.2253 N.am    1  LIG1       -0.2921
     16 O          -7.6998   -0.2565    2.6968 O.2     1  LIG1       -0.2701
     17 O          -4.3649   -0.9876   -0.6531 O.3     1  LIG1       -0.3781
     18 H         -13.4507   -4.9802    1.3576 H       1  LIG1        0.0623
     19 H         -11.8262   -6.5480    0.3830 H       1  LIG1        0.0623
     20 H         -12.7315   -2.7922    2.1652 H       1  LIG1        0.0629
     21 H          -9.4567   -5.9389    0.2066 H       1  LIG1        0.0642
     22 H         -10.3628   -1.0541    2.4734 H       1  LIG1        0.0651
     23 H          -5.5363    0.3746    2.1827 H       1  LIG1        0.0493
     24 H          -4.4721   -1.0496    2.0462 H       1  LIG1        0.0493
     25 H          -5.6134   -3.1019    0.4795 H       1  LIG1        0.0493
     26 H          -7.2282   -2.6678   -0.1399 H       1  LIG1        0.0493
     27 H          -5.4046    0.7476   -0.2423 H       1  LIG1        0.0583
     28 H          -3.7584    0.6627    0.4280 H       1  LIG1        0.0583
     29 H          -6.2683   -0.7995   -1.4291 H       1  LIG1        0.0583
     30 H          -5.4145   -2.3037   -1.8474 H       1  LIG1        0.0583
     31 H          -7.6698   -3.7677    0.7963 H       1  LIG1        0.1529
@<TRIPOS>BOND
     1     1     2   ar
     2     1     3   ar
     3     2     4   ar
     4     3     6   ar
     5     4     7   ar
     6     5     6   ar
     7     5     8   ar
     8     6     7   ar
     9     7    14   ar
    10     8     9    1
    11     8    14   ar
    12     9    15   am
    13     9    16    2
    14    10    12    1
    15    10    15    1
    16    11    13    1
    17    11    15    1
    18    12    17    1
    19    13    17    1
    20     1    18    1
    21     2    19    1
    22     3    20    1
    23     4    21    1
    24     5    22    1
    25    10    23    1
    26    10    24    1
    27    11    25    1
    28    11    26    1
    29    12    27    1
    30    12    28    1
    31    13    29    1
    32    13    30    1
    33    14    31    1
