@<TRIPOS>MOLECULE
ChEBML300294
 42 43 0 0 0
SMALL
USER_CHARGES

@<TRIPOS>ATOM
      1 C         -10.2006   -5.1455    0.4376 C.ar    1  LIG1       -0.0387
      2 C         -11.5310   -5.5365    0.6137 C.ar    1  LIG1       -0.0416
      3 C         -12.0056   -3.5411    1.9139 C.ar    1  LIG1       -0.0343
      4 C          -9.9222   -1.9943    2.1802 C.ar    1  LIG1       -0.0262
      5 C         -10.6690   -3.1265    1.7498 C.ar    1  LIG1       -0.0007
      6 C          -9.7991   -3.9367    1.0168 C.ar    1  LIG1        0.0379
      7 C         -12.4214   -4.7481    1.3401 C.ar    1  LIG1        0.0413
      8 C          -8.6373   -2.1364    1.7094 C.ar    1  LIG1        0.0945
      9 C          -7.4819   -1.2207    1.8920 C.2     1  LIG1        0.2576
     10 C          -4.2196   -1.0560    0.1726 C.2     1  LIG1        0.2318
     11 C          -2.6985   -1.3856   -2.0662 C.3     1  LIG1       -0.0441
     12 C          -4.6578   -0.3964   -3.2788 C.3     1  LIG1       -0.0441
     13 C          -2.8947    1.0998   -2.3087 C.3     1  LIG1       -0.0441
     14 C          -5.3965    0.9422   -0.7783 C.3     1  LIG1        0.0033
     15 C          -5.0765   -0.8503    1.4092 C.3     1  LIG1        0.0887
     16 C          -3.6756   -0.2056   -2.1184 C.3     1  LIG1        0.0278
     17 N          -8.5729   -3.3109    1.0086 N.ar    1  LIG1       -0.3101
     18 N          -6.2857   -1.6155    1.3013 N.am    1  LIG1       -0.3013
     19 N          -4.4220   -0.1425   -0.8679 N.am    1  LIG1       -0.2986
     20 O          -7.6267   -0.1968    2.5548 O.2     1  LIG1       -0.2704
     21 O          -3.4022   -1.9786    0.1171 O.2     1  LIG1       -0.2756
     22 CL        -14.0542   -5.2628    1.5341 Cl      1  LIG1       -0.0843
     23 H          -9.5083   -5.7606   -0.1277 H       1  LIG1        0.0643
     24 H         -11.8608   -6.4738    0.1706 H       1  LIG1        0.0639
     25 H         -12.6988   -2.9255    2.4813 H       1  LIG1        0.0645
     26 H         -10.2898   -1.1659    2.7712 H       1  LIG1        0.0651
     27 H          -1.9840   -1.2723   -1.2425 H       1  LIG1        0.0252
     28 H          -3.2267   -2.3351   -1.9249 H       1  LIG1        0.0252
     29 H          -2.1163   -1.4577   -2.9923 H       1  LIG1        0.0252
     30 H          -5.3681    0.4366   -3.3367 H       1  LIG1        0.0252
     31 H          -5.2445   -1.3139   -3.1534 H       1  LIG1        0.0252
     32 H          -4.1336   -0.4598   -4.2389 H       1  LIG1        0.0252
     33 H          -3.5703    1.9620   -2.3496 H       1  LIG1        0.0252
     34 H          -2.1867    1.2643   -1.4889 H       1  LIG1        0.0252
     35 H          -2.3269    1.0885   -3.2465 H       1  LIG1        0.0252
     36 H          -4.9273    1.8348   -0.3566 H       1  LIG1        0.0433
     37 H          -6.2320    0.6476   -0.1375 H       1  LIG1        0.0433
     38 H          -5.7848    1.1845   -1.7712 H       1  LIG1        0.0433
     39 H          -4.5458   -1.1947    2.3006 H       1  LIG1        0.0567
     40 H          -5.3596    0.2010    1.5061 H       1  LIG1        0.0567
     41 H          -7.7464   -3.6699    0.5506 H       1  LIG1        0.1529
     42 H          -6.2348   -2.5128    0.8200 H       1  LIG1        0.1503
@<TRIPOS>BOND
     1     1     2   ar
     2     1     6   ar
     3     2     7   ar
     4     3     5   ar
     5     3     7   ar
     6     4     5   ar
     7     4     8   ar
     8     5     6   ar
     9     6    17   ar
    10     7    22    1
    11     8     9    1
    12     8    17   ar
    13     9    18   am
    14     9    20    2
    15    10    15    1
    16    10    19   am
    17    10    21    2
    18    11    16    1
    19    12    16    1
    20    13    16    1
    21    14    19    1
    22    15    18    1
    23    16    19    1
    24     1    23    1
    25     2    24    1
    26     3    25    1
    27     4    26    1
    28    11    27    1
    29    11    28    1
    30    11    29    1
    31    12    30    1
    32    12    31    1
    33    12    32    1
    34    13    33    1
    35    13    34    1
    36    13    35    1
    37    14    36    1
    38    14    37    1
    39    14    38    1
    40    15    39    1
    41    15    40    1
    42    17    41    1
    43    18    42    1
