@<TRIPOS>MOLECULE
ChEBML633792
 42 45 0 0 0
SMALL
USER_CHARGES

@<TRIPOS>ATOM
      1 C          -2.4856    1.3573   -3.1351 C.ar    1  LIG1        0.0000
      2 C          -1.7856    0.1515   -2.9802 C.ar    1  LIG1        0.0000
      3 C          -3.7573    1.5160   -2.5823 C.ar    1  LIG1        0.0000
      4 C          -2.3470   -0.9121   -2.2694 C.ar    1  LIG1        0.0000
      5 C         -12.0337   -3.0532    2.1204 C.ar    1  LIG1        0.0000
      6 C          -9.7376   -1.8402    1.8726 C.ar    1  LIG1        0.0000
      7 C         -11.9558   -5.3660    1.3844 C.ar    1  LIG1        0.0000
      8 C         -10.6702   -2.9123    1.7941 C.ar    1  LIG1        0.0000
      9 C          -4.3011    0.4603   -1.8686 C.ar    1  LIG1        0.0000
     10 C          -3.6045   -0.7451   -1.7098 C.ar    1  LIG1        0.0000
     11 C          -9.9875   -4.0117    1.2691 C.ar    1  LIG1        0.0000
     12 C         -10.6027   -5.2499    1.0531 C.ar    1  LIG1        0.0000
     13 C         -12.6622   -4.2859    1.9098 C.ar    1  LIG1        0.0000
     14 C          -8.5294   -2.3011    1.4027 C.ar    1  LIG1        0.0000
     15 C          -7.2450   -1.5641    1.2829 C.2     1  LIG1        0.0000
     16 C          -2.9892   -1.7506    1.1932 C.2     1  LIG1        0.0000
     17 C          -5.6496    0.3951   -1.2239 C.3     1  LIG1        0.0000
     18 C          -4.4319   -1.7388   -0.9401 C.3     1  LIG1        0.0000
     19 C          -5.4681   -0.8017   -0.2719 C.3     1  LIG1        0.0000
     20 C          -3.6522   -2.5597    0.0789 C.3     1  LIG1        0.0000
     21 N          -8.6901   -3.6117    1.0409 N.ar    1  LIG1        0.0000
     22 N          -6.7159   -1.4633    0.0023 N.am    1  LIG1        0.0000
     23 O          -2.5991   -0.5877    0.8985 O.co2   1  LIG1       -0.5000
     24 O          -6.7171   -1.1101    2.2947 O.2     1  LIG1        0.0000
     25 O          -2.9155   -2.3654    2.2965 O.co2   1  LIG1       -0.5000
     26 F          -9.9310   -6.2915    0.5477 F       1  LIG1        0.0000
     27 CL        -14.3294   -4.4656    2.3052 Cl      1  LIG1        0.0000
     28 H          -2.0356    2.1713   -3.6970 H       1  LIG1        0.0000
     29 H          -0.7998    0.0424   -3.4244 H       1  LIG1        0.0000
     30 H          -4.3021    2.4449   -2.7124 H       1  LIG1        0.0000
     31 H          -1.8037   -1.8455   -2.1683 H       1  LIG1        0.0000
     32 H         -12.5832   -2.2100    2.5307 H       1  LIG1        0.0000
     33 H          -9.9340   -0.8404    2.2366 H       1  LIG1        0.0000
     34 H         -12.4501   -6.3216    1.2235 H       1  LIG1        0.0000
     35 H          -5.8906    1.3080   -0.6707 H       1  LIG1        0.0000
     36 H          -6.4202    0.2094   -1.9805 H       1  LIG1        0.0000
     37 H          -4.9247   -2.4112   -1.6547 H       1  LIG1        0.0000
     38 H          -5.0858   -0.4374    0.6915 H       1  LIG1        0.0000
     39 H          -2.8736   -3.1217   -0.4458 H       1  LIG1        0.0000
     40 H          -4.3311   -3.2840    0.5391 H       1  LIG1        0.0000
     41 H          -7.9640   -4.2026    0.6595 H       1  LIG1        0.0000
     42 H          -7.1838   -1.9218   -0.7768 H       1  LIG1        0.0000
@<TRIPOS>BOND
     1     1     2   ar
     2     1     3   ar
     3     2     4   ar
     4     3     9   ar
     5     4    10   ar
     6     5     8   ar
     7     5    13   ar
     8     6     8   ar
     9     6    14   ar
    10     7    12   ar
    11     7    13   ar
    12     8    11   ar
    13     9    10   ar
    14     9    17    1
    15    10    18    1
    16    11    12   ar
    17    11    21   ar
    18    12    26    1
    19    13    27    1
    20    14    15    1
    21    14    21   ar
    22    15    22   am
    23    15    24    2
    24    16    20    1
    25    16    23   ar
    26    16    25   ar
    27    17    19    1
    28    18    19    1
    29    18    20    1
    30    19    22    1
    31     1    28    1
    32     2    29    1
    33     3    30    1
    34     4    31    1
    35     5    32    1
    36     6    33    1
    37     7    34    1
    38    17    35    1
    39    17    36    1
    40    18    37    1
    41    19    38    1
    42    20    39    1
    43    20    40    1
    44    21    41    1
    45    22    42    1
