@<TRIPOS>MOLECULE
ChEBML348239
 55 59 0 0 0
SMALL
USER_CHARGES

@<TRIPOS>ATOM
      1 C         -10.1342   -5.3180    0.6435 C.ar    1  LIG1       -0.0376
      2 C          -5.3611   -1.2595   -2.7020 C.ar    1  LIG1       -0.0373
      3 C         -11.4297   -5.7901    0.8730 C.ar    1  LIG1       -0.0299
      4 C          -4.0676   -0.9442   -3.1274 C.ar    1  LIG1       -0.0244
      5 C         -12.0437   -3.7280    1.9992 C.ar    1  LIG1       -0.0226
      6 C          -3.4220   -0.2997   -0.8769 C.ar    1  LIG1       -0.0171
      7 C         -10.0816   -2.0120    2.0971 C.ar    1  LIG1       -0.0275
      8 C          -5.3671   -0.5604    0.8416 C.ar    1  LIG1       -0.0275
      9 C         -10.7438   -3.2308    1.7793 C.ar    1  LIG1        0.0003
     10 C          -4.7198   -0.6110   -0.4247 C.ar    1  LIG1        0.0007
     11 C          -9.8209   -4.0357    1.1080 C.ar    1  LIG1        0.0379
     12 C          -5.6575   -1.0828   -1.3457 C.ar    1  LIG1        0.0380
     13 C         -12.3713   -5.0091    1.5402 C.ar    1  LIG1        0.0760
     14 C          -3.1114   -0.4715   -2.2307 C.ar    1  LIG1        0.1235
     15 C          -8.7934   -2.0990    1.6216 C.ar    1  LIG1        0.0811
     16 C          -6.6612   -0.9941    0.6678 C.ar    1  LIG1        0.0811
     17 C          -7.7512   -1.1252    1.7018 C.2     1  LIG1        0.2206
     18 C         -17.4917   -2.8178   -1.1034 C.3     1  LIG1       -0.0434
     19 C         -16.1189   -3.2772   -1.5828 C.3     1  LIG1       -0.0134
     20 C         -17.6693   -3.0731    0.3895 C.3     1  LIG1       -0.0134
     21 C         -15.8510   -4.7299   -1.2159 C.3     1  LIG1       -0.0343
     22 C         -17.3956   -4.5263    0.7494 C.3     1  LIG1       -0.0343
     23 C         -15.6434   -6.3004    0.7104 C.3     1  LIG1       -0.0097
     24 C         -14.1338   -6.4162    0.7854 C.3     1  LIG1        0.0922
     25 N          -8.6458   -3.3230    1.0264 N.ar    1  LIG1       -0.3112
     26 N          -6.8268   -1.3071   -0.6547 N.ar    1  LIG1       -0.3112
     27 N         -16.0137   -4.9091    0.2750 N.4     1  LIG1        0.2477
     28 O          -7.6902   -0.3144    2.6554 O.2     1  LIG1       -0.2856
     29 O         -13.6336   -5.4999    1.7502 O.3     1  LIG1       -0.3406
     30 F          -1.8793   -0.1780   -2.6687 F       1  LIG1       -0.2069
     31 H          -9.4019   -5.9266    0.1237 H       1  LIG1        0.0643
     32 H          -6.1053   -1.6273   -3.4008 H       1  LIG1        0.0644
     33 H         -11.6991   -6.7837    0.5223 H       1  LIG1        0.0651
     34 H          -3.8046   -1.0692   -4.1748 H       1  LIG1        0.0654
     35 H         -12.7840   -3.1250    2.5180 H       1  LIG1        0.0657
     36 H          -2.6668    0.0690   -0.1889 H       1  LIG1        0.0660
     37 H         -10.5062   -1.1644    2.6185 H       1  LIG1        0.0651
     38 H          -4.9291   -0.2401    1.7775 H       1  LIG1        0.0651
     39 H         -17.6212   -1.7506   -1.3155 H       1  LIG1        0.0271
     40 H         -18.2706   -3.3525   -1.6608 H       1  LIG1        0.0271
     41 H         -16.0483   -3.1531   -2.6691 H       1  LIG1        0.0320
     42 H         -15.3459   -2.6375   -1.1385 H       1  LIG1        0.0320
     43 H         -16.9914   -2.4207    0.9539 H       1  LIG1        0.0320
     44 H         -18.6892   -2.8074    0.6893 H       1  LIG1        0.0320
     45 H         -16.5501   -5.4120   -1.7124 H       1  LIG1        0.0814
     46 H         -14.8232   -5.0083   -1.4707 H       1  LIG1        0.0814
     47 H         -17.4219   -4.6672    1.8349 H       1  LIG1        0.0814
     48 H         -18.1111   -5.2059    0.2734 H       1  LIG1        0.0814
     49 H         -16.1175   -6.4552    1.6837 H       1  LIG1        0.0839
     50 H         -16.0651   -6.9839   -0.0314 H       1  LIG1        0.0839
     51 H         -13.8538   -7.4258    1.1017 H       1  LIG1        0.0628
     52 H         -13.6636   -6.2073   -0.1810 H       1  LIG1        0.0628
     53 H          -7.7983   -3.6585    0.5891 H       1  LIG1        0.1529
     54 H          -7.6825   -1.6522   -1.0675 H       1  LIG1        0.1529
     55 H         -15.3458   -4.2743    0.7338 H       1  LIG1        0.2004
@<TRIPOS>BOND
     1     1     3   ar
     2     1    11   ar
     3     2     4   ar
     4     2    12   ar
     5     3    13   ar
     6     4    14   ar
     7     5     9   ar
     8     5    13   ar
     9     6    10   ar
    10     6    14   ar
    11     7     9   ar
    12     7    15   ar
    13     8    10   ar
    14     8    16   ar
    15     9    11   ar
    16    10    12   ar
    17    11    25   ar
    18    12    26   ar
    19    13    29    1
    20    14    30    1
    21    15    17    1
    22    15    25   ar
    23    16    17    1
    24    16    26   ar
    25    17    28    2
    26    18    19    1
    27    18    20    1
    28    19    21    1
    29    20    22    1
    30    21    27    1
    31    22    27    1
    32    23    24    1
    33    23    27    1
    34    24    29    1
    35     1    31    1
    36     2    32    1
    37     3    33    1
    38     4    34    1
    39     5    35    1
    40     6    36    1
    41     7    37    1
    42     8    38    1
    43    18    39    1
    44    18    40    1
    45    19    41    1
    46    19    42    1
    47    20    43    1
    48    20    44    1
    49    21    45    1
    50    21    46    1
    51    22    47    1
    52    22    48    1
    53    23    49    1
    54    23    50    1
    55    24    51    1
    56    24    52    1
    57    25    53    1
    58    26    54    1
    59    27    55    1
