@<TRIPOS>MOLECULE
ChEBML369962
 49 53 0 0 0
SMALL
USER_CHARGES

@<TRIPOS>ATOM
      1 C          -0.3001    1.0006   -2.5866 C.ar    1  LIG1       -0.0622
      2 C          -0.9698    1.7642   -1.6307 C.ar    1  LIG1       -0.0620
      3 C          -1.0183    0.1544   -3.4315 C.ar    1  LIG1       -0.0620
      4 C          -2.3579    1.6816   -1.5195 C.ar    1  LIG1       -0.0590
      5 C          -2.4063    0.0718   -3.3204 C.ar    1  LIG1       -0.0590
      6 C         -10.1518   -5.4305    0.7396 C.ar    1  LIG1       -0.0382
      7 C         -11.4947   -5.8437    0.8549 C.ar    1  LIG1       -0.0367
      8 C         -10.1562   -2.0125    1.9646 C.ar    1  LIG1       -0.0255
      9 C         -13.2141   -3.0087    2.2080 C.ar    1  LIG1        0.0549
     10 C         -10.7380   -3.2364    1.6404 C.ar    1  LIG1        0.0086
     11 C         -12.0778   -3.6550    1.7533 C.ar    1  LIG1        0.0263
     12 C          -3.0761    0.8354   -2.3643 C.ar    1  LIG1       -0.0477
     13 C          -9.8153   -4.1304    1.1392 C.ar    1  LIG1        0.0386
     14 C         -12.4168   -4.9269    1.3641 C.ar    1  LIG1        0.0570
     15 C          -8.8207   -2.1662    1.6476 C.ar    1  LIG1        0.0947
     16 C          -7.7666   -1.2041    1.7840 C.2     1  LIG1        0.2598
     17 C          -6.4404   -0.7911   -1.5277 C.3     1  LIG1       -0.0341
     18 C          -4.8441    0.1434    0.1898 C.3     1  LIG1       -0.0341
     19 C          -6.9038   -1.8194   -0.4976 C.3     1  LIG1        0.0147
     20 C          -5.3380   -0.9118    1.1765 C.3     1  LIG1        0.0147
     21 C          -4.9946   -0.3427   -1.2608 C.3     1  LIG1       -0.0344
     22 C          -4.5727    0.7457   -2.2448 C.3     1  LIG1       -0.0249
     23 N         -14.2734   -3.8248    2.1234 N.ar    1  LIG1       -0.1915
     24 N          -8.6237   -3.4397    1.1527 N.ar    1  LIG1       -0.3101
     25 N         -13.7635   -4.9715    1.6122 N.ar    1  LIG1       -0.2379
     26 N          -6.7173   -1.3077    0.8612 N.am    1  LIG1       -0.2967
     27 O          -7.8105   -0.3520    2.6694 O.2     1  LIG1       -0.2702
     28 H           0.7805    1.0660   -2.6739 H       1  LIG1        0.0622
     29 H          -0.4109    2.4240   -0.9734 H       1  LIG1        0.0623
     30 H          -0.4974   -0.4395   -4.1767 H       1  LIG1        0.0623
     31 H          -2.8713    2.2801   -0.7716 H       1  LIG1        0.0625
     32 H          -2.9576   -0.5903   -3.9828 H       1  LIG1        0.0625
     33 H          -9.3995   -6.1095    0.3504 H       1  LIG1        0.0643
     34 H         -11.7948   -6.8426    0.5563 H       1  LIG1        0.0644
     35 H         -10.6200   -1.1258    2.3743 H       1  LIG1        0.0652
     36 H         -13.3491   -2.0084    2.5928 H       1  LIG1        0.0864
     37 H          -6.5228   -1.2184   -2.5339 H       1  LIG1        0.0285
     38 H          -7.1076    0.0799   -1.4911 H       1  LIG1        0.0285
     39 H          -5.4193    1.0676    0.3310 H       1  LIG1        0.0285
     40 H          -3.7946    0.3798    0.4007 H       1  LIG1        0.0285
     41 H          -7.9525   -2.0762   -0.6773 H       1  LIG1        0.0469
     42 H          -6.3193   -2.7429   -0.5852 H       1  LIG1        0.0469
     43 H          -4.7177   -1.8140    1.1157 H       1  LIG1        0.0469
     44 H          -5.2497   -0.5266    2.1953 H       1  LIG1        0.0469
     45 H          -4.3326   -1.2067   -1.4065 H       1  LIG1        0.0307
     46 H          -4.9798    1.7086   -1.9199 H       1  LIG1        0.0319
     47 H          -5.0140    0.5412   -3.2258 H       1  LIG1        0.0319
     48 H          -7.7353   -3.8112    0.8450 H       1  LIG1        0.1529
     49 H         -14.3960   -5.7468    1.4590 H       1  LIG1        0.1755
@<TRIPOS>BOND
     1     1     2   ar
     2     1     3   ar
     3     2     4   ar
     4     3     5   ar
     5     4    12   ar
     6     5    12   ar
     7     6     7   ar
     8     6    13   ar
     9     7    14   ar
    10     8    10   ar
    11     8    15   ar
    12     9    11   ar
    13     9    23   ar
    14    10    11   ar
    15    10    13   ar
    16    11    14   ar
    17    12    22    1
    18    13    24   ar
    19    14    25   ar
    20    15    16    1
    21    15    24   ar
    22    16    26   am
    23    16    27    2
    24    17    19    1
    25    17    21    1
    26    18    20    1
    27    18    21    1
    28    19    26    1
    29    20    26    1
    30    21    22    1
    31    23    25   ar
    32     1    28    1
    33     2    29    1
    34     3    30    1
    35     4    31    1
    36     5    32    1
    37     6    33    1
    38     7    34    1
    39     8    35    1
    40     9    36    1
    41    17    37    1
    42    17    38    1
    43    18    39    1
    44    18    40    1
    45    19    41    1
    46    19    42    1
    47    20    43    1
    48    20    44    1
    49    21    45    1
    50    22    46    1
    51    22    47    1
    52    24    48    1
    53    25    49    1
