@<TRIPOS>MOLECULE
ChEBML612100
 42 45 0 0 0
SMALL
USER_CHARGES

@<TRIPOS>ATOM
      1 C          -4.0146    1.1722   -1.2879 C.ar    1  LIG1       -0.0593
      2 C         -11.5268   -5.4231    0.6715 C.ar    1  LIG1       -0.0520
      3 C          -4.5553    0.8188   -0.0517 C.ar    1  LIG1       -0.0573
      4 C         -10.2081   -4.9620    0.6229 C.ar    1  LIG1       -0.0346
      5 C          -3.3879    0.2075   -2.0766 C.ar    1  LIG1       -0.0318
      6 C         -12.2068   -3.4616    1.9242 C.ar    1  LIG1       -0.0380
      7 C          -3.8425   -1.4644   -0.3927 C.ar    1  LIG1       -0.0270
      8 C         -14.5832   -5.9785    0.4520 C.ar    1  LIG1        0.0542
      9 C         -14.7493   -4.9114    2.3673 C.ar    1  LIG1        0.0206
     10 C         -12.5117   -4.6812    1.3143 C.ar    1  LIG1       -0.0142
     11 C         -13.8614   -5.1726    1.3526 C.ar    1  LIG1        0.0170
     12 C          -4.4692   -0.4994    0.3960 C.ar    1  LIG1       -0.0282
     13 C          -9.8730   -3.7328    1.2311 C.ar    1  LIG1        0.0786
     14 C          -3.3018   -1.1109   -1.6289 C.ar    1  LIG1        0.0749
     15 C         -10.8802   -3.0044    1.8714 C.ar    1  LIG1        0.0403
     16 C          -8.6711   -2.0128    1.9122 C.ar    1  LIG1        0.1641
     17 C          -7.5356   -1.1777    2.1137 C.2     1  LIG1        0.2688
     18 C          -2.1606   -1.6225   -3.6517 C.3     1  LIG1        0.0422
     19 C          -5.0509   -0.8796    1.7269 C.3     1  LIG1        0.0368
     20 N         -15.8334   -6.2141    0.8588 N.ar    1  LIG1       -0.1921
     21 N          -8.6136   -3.1520    1.2628 N.ar    1  LIG1       -0.2349
     22 N         -15.9040   -5.5522    2.0263 N.ar    1  LIG1       -0.2452
     23 N          -6.2944   -1.6029    1.5869 N.am    1  LIG1       -0.3054
     24 O          -7.6140   -0.0984    2.7582 O.2     1  LIG1       -0.2694
     25 O          -2.6908   -2.0525   -2.3989 O.3     1  LIG1       -0.3493
     26 S         -10.2035   -1.5580    2.5213 S.2     1  LIG1       -0.0624
     27 H          -4.0820    2.1985   -1.6365 H       1  LIG1        0.0624
     28 H         -11.7663   -6.3725    0.1969 H       1  LIG1        0.0630
     29 H          -5.0414    1.5775    0.5560 H       1  LIG1        0.0626
     30 H          -9.4466   -5.5495    0.1178 H       1  LIG1        0.0646
     31 H          -2.9687    0.4890   -3.0384 H       1  LIG1        0.0650
     32 H         -12.9717   -2.8765    2.4280 H       1  LIG1        0.0642
     33 H          -3.7738   -2.4928   -0.0461 H       1  LIG1        0.0654
     34 H         -14.2538   -6.4059   -0.4848 H       1  LIG1        0.0864
     35 H         -14.6714   -4.3413    3.2827 H       1  LIG1        0.0813
     36 H          -1.7013   -2.4712   -4.1645 H       1  LIG1        0.0535
     37 H          -1.4176   -0.8387   -3.4842 H       1  LIG1        0.0535
     38 H          -2.9736   -1.2262   -4.2645 H       1  LIG1        0.0535
     39 H          -4.3536   -1.5127    2.2863 H       1  LIG1        0.0518
     40 H          -5.2467    0.0077    2.3381 H       1  LIG1        0.0518
     41 H         -16.7751   -5.5796    2.5414 H       1  LIG1        0.1747
     42 H          -6.2532   -2.5072    1.1282 H       1  LIG1        0.1501
@<TRIPOS>BOND
     1     1     3   ar
     2     1     5   ar
     3     2     4   ar
     4     2    10   ar
     5     3    12   ar
     6     4    13   ar
     7     5    14   ar
     8     6    10   ar
     9     6    15   ar
    10     7    12   ar
    11     7    14   ar
    12     8    11   ar
    13     8    20   ar
    14     9    11   ar
    15     9    22   ar
    16    10    11    1
    17    12    19    1
    18    13    15   ar
    19    13    21   ar
    20    14    25    1
    21    15    26   ar
    22    16    17    1
    23    16    21   ar
    24    16    26   ar
    25    17    23   am
    26    17    24    2
    27    18    25    1
    28    19    23    1
    29    20    22   ar
    30     1    27    1
    31     2    28    1
    32     3    29    1
    33     4    30    1
    34     5    31    1
    35     6    32    1
    36     7    33    1
    37     8    34    1
    38     9    35    1
    39    18    36    1
    40    18    37    1
    41    18    38    1
    42    19    39    1
    43    19    40    1
    44    22    41    1
    45    23    42    1
