@<TRIPOS>MOLECULE
ChEBML233076
 32 34 0 0 0
SMALL
USER_CHARGES

@<TRIPOS>ATOM
      1 C          -3.9124   -1.7760   -0.1542 C.ar    1  LIG1       -0.0622
      2 C          -5.0872   -2.2646   -0.6982 C.ar    1  LIG1       -0.0615
      3 C          -3.9284   -1.1116    1.0597 C.ar    1  LIG1       -0.0615
      4 C          -6.2831   -2.0918   -0.0331 C.ar    1  LIG1       -0.0510
      5 C          -5.1182   -0.9264    1.7323 C.ar    1  LIG1       -0.0510
      6 C         -10.3341   -5.1427    0.4429 C.ar    1  LIG1       -0.0376
      7 C         -11.6439   -5.5132    0.6450 C.ar    1  LIG1       -0.0299
      8 C         -12.0427   -3.5387    1.9594 C.ar    1  LIG1       -0.0226
      9 C          -9.9521   -2.0353    2.1948 C.ar    1  LIG1       -0.0275
     10 C         -10.7091   -3.1513    1.7668 C.ar    1  LIG1        0.0003
     11 C          -6.3067   -1.4220    1.1920 C.ar    1  LIG1        0.0238
     12 C          -9.8505   -3.9618    0.9987 C.ar    1  LIG1        0.0379
     13 C         -12.4983   -4.7150    1.4042 C.ar    1  LIG1        0.0753
     14 C          -8.6911   -2.1755    1.7008 C.ar    1  LIG1        0.0797
     15 C          -7.5847   -1.2331    1.9105 C.2     1  LIG1        0.2066
     16 C         -13.9586   -6.3381    0.9065 C.3     1  LIG1        0.0422
     17 N          -8.6191   -3.3458    0.9708 N.ar    1  LIG1       -0.3112
     18 O          -7.7198   -0.2967    2.6757 O.2     1  LIG1       -0.2871
     19 O         -13.7898   -5.0964    1.5933 O.3     1  LIG1       -0.3493
     20 H          -2.9788   -1.9140   -0.6791 H       1  LIG1        0.0622
     21 H          -5.0676   -2.7828   -1.6456 H       1  LIG1        0.0623
     22 H          -3.0078   -0.7333    1.4790 H       1  LIG1        0.0623
     23 H          -7.1992   -2.4741   -0.4587 H       1  LIG1        0.0630
     24 H          -5.1301   -0.4035    2.6772 H       1  LIG1        0.0630
     25 H          -9.6810   -5.7687   -0.1471 H       1  LIG1        0.0643
     26 H         -12.0133   -6.4309    0.2118 H       1  LIG1        0.0651
     27 H         -12.7085   -2.9207    2.5436 H       1  LIG1        0.0657
     28 H         -10.3101   -1.2188    2.8043 H       1  LIG1        0.0651
     29 H         -14.9844   -6.6852    1.0301 H       1  LIG1        0.0535
     30 H         -13.7477   -6.1985   -0.1539 H       1  LIG1        0.0535
     31 H         -13.2724   -7.0778    1.3191 H       1  LIG1        0.0535
     32 H          -7.8310   -3.6791    0.5141 H       1  LIG1        0.1529
@<TRIPOS>BOND
     1     1     2   ar
     2     1     3   ar
     3     2     4   ar
     4     3     5   ar
     5     4    11   ar
     6     5    11   ar
     7     6     7   ar
     8     6    12   ar
     9     7    13   ar
    10     8    10   ar
    11     8    13   ar
    12     9    10   ar
    13     9    14   ar
    14    10    12   ar
    15    11    15    1
    16    12    17   ar
    17    13    19    1
    18    14    15    1
    19    14    17   ar
    20    15    18    2
    21    16    19    1
    22     1    20    1
    23     2    21    1
    24     3    22    1
    25     4    23    1
    26     5    24    1
    27     6    25    1
    28     7    26    1
    29     8    27    1
    30     9    28    1
    31    16    29    1
    32    16    30    1
    33    16    31    1
    34    17    32    1
