@<TRIPOS>MOLECULE
ChEBML492800
 47 49 0 0 0
SMALL
USER_CHARGES

@<TRIPOS>ATOM
      1 C         -12.1843   -3.5547    1.1325 C.ar    1  LIG1       -0.0566
      2 C         -11.1128   -5.6654    1.6163 C.ar    1  LIG1       -0.0566
      3 C         -10.9369   -2.9734    0.9058 C.ar    1  LIG1       -0.0404
      4 C          -9.8653   -5.0840    1.3896 C.ar    1  LIG1       -0.0404
      5 C          -3.4228    1.0177   -2.9056 C.ar    1  LIG1        0.0364
      6 C          -2.3551    0.2035   -3.2211 C.ar    1  LIG1       -0.0029
      7 C         -12.2723   -4.9008    1.4877 C.ar    1  LIG1       -0.0425
      8 C          -9.7774   -3.7379    1.0344 C.ar    1  LIG1        0.0328
      9 C          -3.6248   -0.4371   -1.2769 C.ar    1  LIG1        0.1596
     10 C          -6.0218   -2.6012   -0.1002 C.2     1  LIG1       -0.0587
     11 C          -6.8023   -1.5859    0.2943 C.2     1  LIG1        0.0141
     12 C          -8.2370   -1.8336    0.4459 C.2     1  LIG1        0.2429
     13 C          -4.5382   -2.4610   -0.3114 C.3     1  LIG1        0.0322
     14 C          -6.2633   -0.2254    0.6036 C.3     1  LIG1       -0.0070
     15 C          -4.7550   -0.2636    0.8599 C.3     1  LIG1        0.0179
     16 C         -14.7130   -4.8405    0.8673 C.3     1  LIG1       -0.0561
     17 C         -14.0285   -5.3907    3.2263 C.3     1  LIG1       -0.0561
     18 C         -13.7048   -7.0493    1.4027 C.3     1  LIG1       -0.0561
     19 C         -13.6062   -5.5223    1.7301 C.3     1  LIG1       -0.0132
     20 N          -4.1521    0.6517   -1.7913 N.ar    1  LIG1       -0.2340
     21 N          -4.0967   -1.0652   -0.1785 N.pl3   1  LIG1       -0.3060
     22 N          -8.5106   -3.1480    0.8041 N.am    1  LIG1       -0.2816
     23 O          -9.0413   -0.9194    0.2584 O.2     1  LIG1       -0.2719
     24 S          -2.2497   -1.0742   -2.0820 S.2     1  LIG1       -0.0608
     25 H         -13.0825   -2.9509    1.0322 H       1  LIG1        0.0626
     26 H         -11.1720   -6.7147    1.8934 H       1  LIG1        0.0626
     27 H         -10.8802   -1.9236    0.6291 H       1  LIG1        0.0642
     28 H          -8.9680   -5.6889    1.4936 H       1  LIG1        0.0642
     29 H          -3.7148    1.8989   -3.4606 H       1  LIG1        0.0846
     30 H          -1.6554    0.2963   -4.0394 H       1  LIG1        0.0718
     31 H          -6.4460   -3.5819   -0.3004 H       1  LIG1        0.0597
     32 H          -4.0124   -3.0907    0.4165 H       1  LIG1        0.0514
     33 H          -4.2953   -2.8284   -1.3159 H       1  LIG1        0.0514
     34 H          -6.4783    0.4369   -0.2443 H       1  LIG1        0.0334
     35 H          -6.7616    0.1980    1.4832 H       1  LIG1        0.0334
     36 H          -4.3703    0.7641    0.8673 H       1  LIG1        0.0473
     37 H          -4.5444   -0.6979    1.8460 H       1  LIG1        0.0473
     38 H         -15.7049   -5.2793    1.0269 H       1  LIG1        0.0239
     39 H         -14.7962   -3.7717    1.0929 H       1  LIG1        0.0239
     40 H         -14.4743   -4.9342   -0.1987 H       1  LIG1        0.0239
     41 H         -15.0080   -5.8462    3.4084 H       1  LIG1        0.0239
     42 H         -13.3196   -5.8717    3.9106 H       1  LIG1        0.0239
     43 H         -14.0995   -4.3336    3.5087 H       1  LIG1        0.0239
     44 H         -14.7033   -7.4595    1.5969 H       1  LIG1        0.0239
     45 H         -13.4801   -7.2371    0.3463 H       1  LIG1        0.0239
     46 H         -12.9968   -7.6248    2.0102 H       1  LIG1        0.0239
     47 H          -7.7169   -3.7753    0.9191 H       1  LIG1        0.1560
@<TRIPOS>BOND
     1     1     3   ar
     2     1     7   ar
     3     2     4   ar
     4     2     7   ar
     5     3     8   ar
     6     4     8   ar
     7     5     6   ar
     8     5    20   ar
     9     6    24   ar
    10     7    19    1
    11     8    22    1
    12     9    20   ar
    13     9    21    1
    14     9    24   ar
    15    10    11    2
    16    10    13    1
    17    11    12    1
    18    11    14    1
    19    12    22   am
    20    12    23    2
    21    13    21    1
    22    14    15    1
    23    15    21    1
    24    16    19    1
    25    17    19    1
    26    18    19    1
    27     1    25    1
    28     2    26    1
    29     3    27    1
    30     4    28    1
    31     5    29    1
    32     6    30    1
    33    10    31    1
    34    13    32    1
    35    13    33    1
    36    14    34    1
    37    14    35    1
    38    15    36    1
    39    15    37    1
    40    16    38    1
    41    16    39    1
    42    16    40    1
    43    17    41    1
    44    17    42    1
    45    17    43    1
    46    18    44    1
    47    18    45    1
    48    18    46    1
    49    22    47    1
