@<TRIPOS>MOLECULE
ChEBML864817
 46 49 0 0 0
SMALL
USER_CHARGES

@<TRIPOS>ATOM
      1 C          -3.6516    1.2109   -3.2151 C.ar    1  LIG1       -0.0602
      2 C          -2.3812    0.8263   -3.6020 C.ar    1  LIG1       -0.0595
      3 C          -4.2518    0.6215   -2.1182 C.ar    1  LIG1       -0.0382
      4 C          -1.7045   -0.1499   -2.8939 C.ar    1  LIG1       -0.0299
      5 C         -12.0135   -3.5256    1.3449 C.ar    1  LIG1       -0.0328
      6 C          -8.4553   -3.4233    1.1850 C.ar    1  LIG1       -0.0193
      7 C         -12.2818   -4.7625    0.8750 C.ar    1  LIG1       -0.0222
      8 C         -10.6872   -3.0838    1.4436 C.ar    1  LIG1        0.0475
      9 C          -3.5810   -0.3622   -1.4062 C.ar    1  LIG1        0.0594
     10 C          -2.2986   -0.7451   -1.7934 C.ar    1  LIG1        0.0957
     11 C          -9.7081   -3.9954    1.0312 C.ar    1  LIG1        0.0352
     12 C          -8.6416   -2.1560    1.6925 C.ar    1  LIG1        0.0976
     13 C          -7.5823   -1.1959    2.0098 C.2     1  LIG1        0.2601
     14 C          -4.5871    0.1201    0.6057 C.3     1  LIG1        0.0275
     15 C          -5.4168   -1.6024   -0.7866 C.3     1  LIG1        0.0275
     16 C          -5.2413   -0.4704    1.8588 C.3     1  LIG1        0.0303
     17 C          -6.1258   -2.3068    0.3746 C.3     1  LIG1        0.0303
     18 C         -10.6079   -0.7236    2.3783 C.3     1  LIG1        0.0055
     19 C          -0.3642   -1.8717   -1.7297 C.3     1  LIG1        0.0423
     20 N          -9.9950   -1.9475    1.8563 N.ar    1  LIG1       -0.2986
     21 N          -4.1888   -0.9646   -0.2986 N.pl3   1  LIG1       -0.3255
     22 N          -6.3679   -1.3191    1.4385 N.am    1  LIG1       -0.2936
     23 O          -7.7987   -0.2866    2.7898 O.2     1  LIG1       -0.2701
     24 O          -1.6339   -1.7049   -1.0957 O.3     1  LIG1       -0.3473
     25 S         -10.6549   -5.4103    0.5296 S.2     1  LIG1       -0.0959
     26 H          -4.1762    1.9738   -3.7709 H       1  LIG1        0.0623
     27 H          -1.9161    1.2896   -4.4594 H       1  LIG1        0.0623
     28 H          -5.2440    0.9240   -1.8179 H       1  LIG1        0.0643
     29 H          -0.7123   -0.4481   -3.1989 H       1  LIG1        0.0651
     30 H         -12.8221   -2.8757    1.6452 H       1  LIG1        0.0648
     31 H          -7.5078   -3.8855    0.9506 H       1  LIG1        0.0657
     32 H         -13.2410   -5.2403    0.7413 H       1  LIG1        0.0701
     33 H          -3.7068    0.6953    0.8926 H       1  LIG1        0.0485
     34 H          -5.2975    0.7730    0.0986 H       1  LIG1        0.0485
     35 H          -6.0765   -0.8444   -1.2086 H       1  LIG1        0.0485
     36 H          -5.1655   -2.3333   -1.5553 H       1  LIG1        0.0485
     37 H          -4.5135   -1.0706    2.4049 H       1  LIG1        0.0486
     38 H          -5.6062    0.3347    2.4965 H       1  LIG1        0.0486
     39 H          -5.4959   -3.1103    0.7563 H       1  LIG1        0.0486
     40 H          -7.0757   -2.7160    0.0307 H       1  LIG1        0.0486
     41 H         -10.7261   -0.0028    1.5694 H       1  LIG1        0.0436
     42 H         -11.5846   -0.9584    2.8015 H       1  LIG1        0.0436
     43 H          -9.9689   -0.2992    3.1528 H       1  LIG1        0.0436
     44 H           0.2076   -2.6355   -1.2026 H       1  LIG1        0.0535
     45 H          -0.5125   -2.1787   -2.7650 H       1  LIG1        0.0535
     46 H           0.1809   -0.9281   -1.7051 H       1  LIG1        0.0535
@<TRIPOS>BOND
     1     1     2   ar
     2     1     3   ar
     3     2     4   ar
     4     3     9   ar
     5     4    10   ar
     6     5     7   ar
     7     5     8   ar
     8     6    11   ar
     9     6    12   ar
    10     7    25   ar
    11     8    11   ar
    12     8    20   ar
    13     9    10   ar
    14     9    21    1
    15    10    24    1
    16    11    25   ar
    17    12    13    1
    18    12    20   ar
    19    13    22   am
    20    13    23    2
    21    14    16    1
    22    14    21    1
    23    15    17    1
    24    15    21    1
    25    16    22    1
    26    17    22    1
    27    18    20    1
    28    19    24    1
    29     1    26    1
    30     2    27    1
    31     3    28    1
    32     4    29    1
    33     5    30    1
    34     6    31    1
    35     7    32    1
    36    14    33    1
    37    14    34    1
    38    15    35    1
    39    15    36    1
    40    16    37    1
    41    16    38    1
    42    17    39    1
    43    17    40    1
    44    18    41    1
    45    18    42    1
    46    18    43    1
    47    19    44    1
    48    19    45    1
    49    19    46    1
