@<TRIPOS>MOLECULE
ChEBML348344
 36 39 0 0 0
SMALL
USER_CHARGES

@<TRIPOS>ATOM
      1 C         -10.0583   -5.3225    0.4711 C.ar    1  LIG1       -0.0376
      2 C          -3.6545   -2.2539   -0.9166 C.ar    1  LIG1       -0.0373
      3 C         -11.3675   -5.7951    0.6001 C.ar    1  LIG1       -0.0299
      4 C          -2.8565   -1.5590   -1.8299 C.ar    1  LIG1       -0.0244
      5 C         -12.0631   -3.7410    1.6926 C.ar    1  LIG1       -0.0226
      6 C          -4.2487    0.4205   -1.6286 C.ar    1  LIG1       -0.0171
      7 C         -10.1132   -2.0273    1.9489 C.ar    1  LIG1       -0.0275
      8 C          -6.2328    0.0907    0.0324 C.ar    1  LIG1       -0.0275
      9 C         -10.7502   -3.2432    1.5738 C.ar    1  LIG1        0.0003
     10 C          -5.0677   -0.2598   -0.7056 C.ar    1  LIG1        0.0007
     11 C          -9.7801   -4.0439    0.9671 C.ar    1  LIG1        0.0379
     12 C          -4.7524   -1.5787   -0.3716 C.ar    1  LIG1        0.0380
     13 C         -12.3560   -5.0183    1.2010 C.ar    1  LIG1        0.0753
     14 C          -3.1472   -0.2424   -2.1819 C.ar    1  LIG1        0.1235
     15 C          -8.7932   -2.1119    1.5701 C.ar    1  LIG1        0.0811
     16 C          -6.5956   -1.0018    0.7859 C.ar    1  LIG1        0.0811
     17 C          -7.7595   -1.1395    1.7348 C.2     1  LIG1        0.2206
     18 C         -14.5897   -4.6643    1.9365 C.3     1  LIG1        0.0422
     19 N          -8.6019   -3.3317    0.9785 N.ar    1  LIG1       -0.3112
     20 N          -5.6965   -2.0036    0.5358 N.ar    1  LIG1       -0.3112
     21 O          -7.7694   -0.3359    2.6962 O.2     1  LIG1       -0.2856
     22 O         -13.6235   -5.5069    1.3122 O.3     1  LIG1       -0.3493
     23 F          -2.3632    0.3978   -3.0603 F       1  LIG1       -0.2069
     24 H          -9.2895   -5.9279    0.0028 H       1  LIG1        0.0643
     25 H          -3.4278   -3.2792   -0.6432 H       1  LIG1        0.0644
     26 H         -11.6103   -6.7860    0.2229 H       1  LIG1        0.0651
     27 H          -1.9963   -2.0548   -2.2729 H       1  LIG1        0.0654
     28 H         -12.8397   -3.1410    2.1592 H       1  LIG1        0.0657
     29 H          -4.4632    1.4469   -1.9116 H       1  LIG1        0.0660
     30 H         -10.5752   -1.1831    2.4435 H       1  LIG1        0.0651
     31 H          -6.7476    1.0420    0.0113 H       1  LIG1        0.0651
     32 H         -15.5564   -5.1731    1.9609 H       1  LIG1        0.0535
     33 H         -14.6726   -3.7281    1.3788 H       1  LIG1        0.0535
     34 H         -14.2674   -4.4502    2.9582 H       1  LIG1        0.0535
     35 H          -7.7245   -3.6646    0.6031 H       1  LIG1        0.1529
     36 H          -5.7201   -2.9235    0.9540 H       1  LIG1        0.1529
@<TRIPOS>BOND
     1     1     3   ar
     2     1    11   ar
     3     2     4   ar
     4     2    12   ar
     5     3    13   ar
     6     4    14   ar
     7     5     9   ar
     8     5    13   ar
     9     6    10   ar
    10     6    14   ar
    11     7     9   ar
    12     7    15   ar
    13     8    10   ar
    14     8    16   ar
    15     9    11   ar
    16    10    12   ar
    17    11    19   ar
    18    12    20   ar
    19    13    22    1
    20    14    23    1
    21    15    17    1
    22    15    19   ar
    23    16    17    1
    24    16    20   ar
    25    17    21    2
    26    18    22    1
    27     1    24    1
    28     2    25    1
    29     3    26    1
    30     4    27    1
    31     5    28    1
    32     6    29    1
    33     7    30    1
    34     8    31    1
    35    18    32    1
    36    18    33    1
    37    18    34    1
    38    19    35    1
    39    20    36    1
