@<TRIPOS>MOLECULE
ChEBML612102
 45 48 0 0 0
SMALL
USER_CHARGES

@<TRIPOS>ATOM
      1 C          -4.7356    1.9275   -0.4126 C.ar    1  LIG1       -0.0593
      2 C         -11.3360   -5.8434    0.8758 C.ar    1  LIG1       -0.0520
      3 C          -5.0802    1.1370    0.6684 C.ar    1  LIG1       -0.0572
      4 C         -10.0779   -5.3528    0.9871 C.ar    1  LIG1       -0.0346
      5 C          -3.8881    1.4365   -1.3865 C.ar    1  LIG1       -0.0318
      6 C         -12.2811   -3.6829    1.3639 C.ar    1  LIG1       -0.0380
      7 C          -3.7337   -0.6439   -0.1968 C.ar    1  LIG1       -0.0270
      8 C         -15.0373   -4.8901    1.0823 C.ar    1  LIG1        0.0542
      9 C         -14.1391   -6.8905    0.6363 C.ar    1  LIG1        0.0206
     10 C         -12.4609   -5.0293    1.0593 C.ar    1  LIG1       -0.0142
     11 C         -13.8267   -5.5945    0.9300 C.ar    1  LIG1        0.0170
     12 C          -4.5773   -0.1461    0.7776 C.ar    1  LIG1       -0.0280
     13 C          -9.8514   -3.9857    1.2959 C.ar    1  LIG1        0.0786
     14 C          -3.3823    0.1488   -1.2794 C.ar    1  LIG1        0.0749
     15 C         -11.0078   -3.1831    1.4772 C.ar    1  LIG1        0.0403
     16 C          -8.5897   -2.0771    1.7261 C.ar    1  LIG1        0.1643
     17 C          -7.3781   -1.2527    1.9126 C.2     1  LIG1        0.2711
     18 C          -6.0519   -3.0928    1.0223 C.3     1  LIG1        0.0035
     19 C          -2.3805    0.7019   -3.2035 C.3     1  LIG1        0.0422
     20 C          -4.9545   -1.0046    1.9572 C.3     1  LIG1        0.0393
     21 N         -16.0213   -5.7288    0.8938 N.ar    1  LIG1       -0.1921
     22 N          -8.6813   -3.3565    1.4375 N.ar    1  LIG1       -0.2349
     23 N         -15.4833   -6.9912    0.6160 N.ar    1  LIG1       -0.2452
     24 N          -6.1634   -1.7684    1.6387 N.am    1  LIG1       -0.2947
     25 O          -7.4767   -0.1092    2.3130 O.2     1  LIG1       -0.2692
     26 O          -2.5487   -0.3367   -2.2366 O.3     1  LIG1       -0.3493
     27 S         -10.3065   -1.5920    1.8430 S.2     1  LIG1       -0.0624
     28 H          -5.1292    2.9298   -0.4954 H       1  LIG1        0.0624
     29 H         -11.4749   -6.8881    0.6395 H       1  LIG1        0.0630
     30 H          -5.7431    1.5228    1.4288 H       1  LIG1        0.0626
     31 H          -9.2350   -6.0114    0.8384 H       1  LIG1        0.0646
     32 H          -3.6190    2.0543   -2.2304 H       1  LIG1        0.0650
     33 H         -13.1351   -3.0378    1.5089 H       1  LIG1        0.0642
     34 H          -3.3446   -1.6480   -0.1134 H       1  LIG1        0.0654
     35 H         -15.1349   -3.8399    1.3147 H       1  LIG1        0.0864
     36 H         -13.4366   -7.6907    0.4557 H       1  LIG1        0.0813
     37 H          -7.0446   -3.5317    0.9221 H       1  LIG1        0.0433
     38 H          -5.5955   -2.9978    0.0371 H       1  LIG1        0.0433
     39 H          -5.4327   -3.7344    1.6493 H       1  LIG1        0.0433
     40 H          -1.9481    1.5794   -2.7227 H       1  LIG1        0.0535
     41 H          -1.7157    0.3569   -3.9955 H       1  LIG1        0.0535
     42 H          -3.3495    0.9616   -3.6299 H       1  LIG1        0.0535
     43 H          -4.1390   -1.6922    2.1818 H       1  LIG1        0.0520
     44 H          -5.1434   -0.3699    2.8230 H       1  LIG1        0.0520
     45 H         -15.9903   -7.7984    0.4365 H       1  LIG1        0.1747
@<TRIPOS>BOND
     1     1     3   ar
     2     1     5   ar
     3     2     4   ar
     4     2    10   ar
     5     3    12   ar
     6     4    13   ar
     7     5    14   ar
     8     6    10   ar
     9     6    15   ar
    10     7    12   ar
    11     7    14   ar
    12     8    11   ar
    13     8    21   ar
    14     9    11   ar
    15     9    23   ar
    16    10    11    1
    17    12    20    1
    18    13    15   ar
    19    13    22   ar
    20    14    26    1
    21    15    27   ar
    22    16    17    1
    23    16    22   ar
    24    16    27   ar
    25    17    24   am
    26    17    25    2
    27    18    24    1
    28    19    26    1
    29    20    24    1
    30    21    23   ar
    31     1    28    1
    32     2    29    1
    33     3    30    1
    34     4    31    1
    35     5    32    1
    36     6    33    1
    37     7    34    1
    38     8    35    1
    39     9    36    1
    40    18    37    1
    41    18    38    1
    42    18    39    1
    43    19    40    1
    44    19    41    1
    45    19    42    1
    46    20    43    1
    47    20    44    1
    48    23    45    1
