@<TRIPOS>MOLECULE
ChEBML1140297
 52 55 0 0 0
SMALL
USER_CHARGES

@<TRIPOS>ATOM
      1 C          -2.1268    1.0849   -3.4849 C.ar    1  LIG1       -0.0622
      2 C          -2.8937    1.7470   -2.5445 C.ar    1  LIG1       -0.0619
      3 C          -2.0520   -0.2953   -3.4682 C.ar    1  LIG1       -0.0619
      4 C          -9.9808   -1.8356    2.2996 C.ar    1  LIG1       -0.0463
      5 C          -3.5864    1.0288   -1.5878 C.ar    1  LIG1       -0.0561
      6 C          -2.7413   -1.0132   -2.5089 C.ar    1  LIG1       -0.0561
      7 C         -11.0313   -2.7224    2.1442 C.ar    1  LIG1       -0.0401
      8 C          -8.5950   -3.4163    1.1267 C.ar    1  LIG1        0.0396
      9 C          -8.7304   -2.1900    1.7783 C.ar    1  LIG1        0.0556
     10 C          -3.5125   -0.3515   -1.5717 C.ar    1  LIG1       -0.0161
     11 C         -10.8150   -3.9194    1.4850 C.ar    1  LIG1        0.0373
     12 C          -7.5734   -1.2801    1.9156 C.2     1  LIG1        0.2473
     13 C          -3.2156    0.9811    2.5126 C.3     1  LIG1       -0.0528
     14 C          -3.9695    0.1920    3.5837 C.3     1  LIG1       -0.0515
     15 C          -3.0292    0.1096    1.2709 C.3     1  LIG1       -0.0456
     16 C          -5.3369   -0.2397    3.0458 C.3     1  LIG1       -0.0340
     17 C          -5.6635   -1.4776   -1.0576 C.3     1  LIG1       -0.0036
     18 C          -6.4291   -2.2863   -0.0067 C.3     1  LIG1        0.0178
     19 C          -4.4039   -0.2948    0.7404 C.3     1  LIG1        0.0106
     20 C          -5.1324   -1.1108    1.8072 C.3     1  LIG1        0.0315
     21 C          -4.2675   -1.1345   -0.5287 C.3     1  LIG1        0.0957
     22 C         -11.9568   -4.8878    1.3136 C.3     1  LIG1       -0.0222
     23 N          -9.6244   -4.2292    1.0087 N.ar    1  LIG1       -0.2607
     24 N          -6.4234   -1.5496    1.2665 N.am    1  LIG1       -0.2942
     25 O          -7.6593   -0.2889    2.6140 O.2     1  LIG1       -0.2716
     26 O          -3.5604   -2.3398   -0.2301 O.3     1  LIG1       -0.3847
     27 H          -1.5862    1.6460   -4.2328 H       1  LIG1        0.0622
     28 H          -2.9520    2.8253   -2.5575 H       1  LIG1        0.0623
     29 H          -1.4532   -0.8126   -4.2031 H       1  LIG1        0.0623
     30 H         -10.1215   -0.8941    2.8097 H       1  LIG1        0.0632
     31 H          -4.1856    1.5461   -0.8531 H       1  LIG1        0.0626
     32 H          -2.6800   -2.0914   -2.4936 H       1  LIG1        0.0626
     33 H         -12.0099   -2.4826    2.5329 H       1  LIG1        0.0642
     34 H          -7.6368   -3.7033    0.7195 H       1  LIG1        0.0848
     35 H          -3.7831    1.8755    2.2552 H       1  LIG1        0.0267
     36 H          -2.2383    1.2721    2.8978 H       1  LIG1        0.0267
     37 H          -4.1082    0.8185    4.4646 H       1  LIG1        0.0267
     38 H          -3.3921   -0.6915    3.8562 H       1  LIG1        0.0267
     39 H          -2.4576   -0.7841    1.5212 H       1  LIG1        0.0271
     40 H          -2.4987    0.6822    0.5102 H       1  LIG1        0.0271
     41 H          -5.9190    0.6424    2.7792 H       1  LIG1        0.0286
     42 H          -5.8656   -0.8102    3.8095 H       1  LIG1        0.0286
     43 H          -5.5710   -2.0654   -1.9709 H       1  LIG1        0.0316
     44 H          -6.2062   -0.5571   -1.2729 H       1  LIG1        0.0316
     45 H          -5.9471   -3.2544    0.1304 H       1  LIG1        0.0471
     46 H          -7.4571   -2.4335   -0.3379 H       1  LIG1        0.0471
     47 H          -4.9849    0.6010    0.5209 H       1  LIG1        0.0355
     48 H          -4.5319   -1.9823    2.0679 H       1  LIG1        0.0510
     49 H         -11.9898   -5.5653    2.1669 H       1  LIG1        0.0296
     50 H         -12.8949   -4.3363    1.2511 H       1  LIG1        0.0296
     51 H         -11.8117   -5.4626    0.3988 H       1  LIG1        0.0296
     52 H          -3.5010   -2.8406   -1.0552 H       1  LIG1        0.2113
@<TRIPOS>BOND
     1     1     2   ar
     2     1     3   ar
     3     2     5   ar
     4     3     6   ar
     5     4     7   ar
     6     4     9   ar
     7     5    10   ar
     8     6    10   ar
     9     7    11   ar
    10     8     9   ar
    11     8    23   ar
    12     9    12    1
    13    10    21    1
    14    11    22    1
    15    11    23   ar
    16    12    24   am
    17    12    25    2
    18    13    14    1
    19    13    15    1
    20    14    16    1
    21    15    19    1
    22    16    20    1
    23    17    18    1
    24    17    21    1
    25    18    24    1
    26    19    20    1
    27    19    21    1
    28    20    24    1
    29    21    26    1
    30     1    27    1
    31     2    28    1
    32     3    29    1
    33     4    30    1
    34     5    31    1
    35     6    32    1
    36     7    33    1
    37     8    34    1
    38    13    35    1
    39    13    36    1
    40    14    37    1
    41    14    38    1
    42    15    39    1
    43    15    40    1
    44    16    41    1
    45    16    42    1
    46    17    43    1
    47    17    44    1
    48    18    45    1
    49    18    46    1
    50    19    47    1
    51    20    48    1
    52    22    49    1
    53    22    50    1
    54    22    51    1
    55    26    52    1
