@<TRIPOS>MOLECULE
ChEBML249487
 56 59 0 0 0
SMALL
USER_CHARGES

@<TRIPOS>ATOM
      1 C          -2.3688    0.8447   -3.5777 C.ar    1  LIG1       -0.0411
      2 C         -10.2656   -5.0802    0.2168 C.ar    1  LIG1       -0.0383
      3 C         -11.6115   -5.3580    0.1541 C.ar    1  LIG1       -0.0377
      4 C          -1.7324    0.8790   -2.3440 C.ar    1  LIG1       -0.0267
      5 C         -12.1354   -3.2426    1.1772 C.ar    1  LIG1       -0.0304
      6 C         -10.0376   -1.8360    1.7333 C.ar    1  LIG1       -0.0261
      7 C          -3.5868    0.2059   -3.6935 C.ar    1  LIG1        0.0293
      8 C         -10.7672   -2.9475    1.2464 C.ar    1  LIG1       -0.0003
      9 C          -9.8268   -3.8763    0.7610 C.ar    1  LIG1        0.0379
     10 C         -12.5486   -4.4419    0.6334 C.ar    1  LIG1        0.0437
     11 C          -2.3500    0.2648   -1.2645 C.ar    1  LIG1        0.1152
     12 C          -8.7166   -2.0930    1.5452 C.ar    1  LIG1        0.0947
     13 C          -3.5793   -0.3668   -1.4576 C.ar    1  LIG1        0.1506
     14 C          -7.6126   -1.1937    1.9122 C.2     1  LIG1        0.2599
     15 C          -4.5632    0.0621    0.5709 C.3     1  LIG1        0.0289
     16 C          -5.4632   -1.5542   -0.9030 C.3     1  LIG1        0.0289
     17 C          -5.2430   -0.5608    1.7944 C.3     1  LIG1        0.0303
     18 C          -6.2025   -2.2838    0.2233 C.3     1  LIG1        0.0303
     19 C           0.1798    1.0355    1.1803 C.3     1  LIG1       -0.0410
     20 C         -14.2956   -5.0834    3.2345 C.3     1  LIG1        0.0225
     21 C          -0.5341    0.9890   -0.1721 C.3     1  LIG1        0.0507
     22 N          -4.1529   -0.3711   -2.6498 N.ar    1  LIG1       -0.2386
     23 N          -8.5764   -3.3308    0.9489 N.ar    1  LIG1       -0.3101
     24 N          -4.2099   -0.9931   -0.3856 N.pl3   1  LIG1       -0.3105
     25 N          -6.4038   -1.3398    1.3343 N.am    1  LIG1       -0.2936
     26 N         -13.9140   -4.7409    0.5626 N.pl3   1  LIG1       -0.2633
     27 O          -7.7903   -0.3177    2.7375 O.2     1  LIG1       -0.2701
     28 O         -15.9522   -5.8230    1.2551 O.2     1  LIG1       -0.4814
     29 O         -13.7612   -6.9878    1.4187 O.2     1  LIG1       -0.4814
     30 O          -1.7634    0.2729   -0.0374 O.3     1  LIG1       -0.3427
     31 S         -14.5763   -5.8397    1.6098 S.O2    1  LIG1       -0.1957
     32 H          -1.9151    1.3136   -4.4383 H       1  LIG1        0.0640
     33 H          -9.5489   -5.7966   -0.1568 H       1  LIG1        0.0643
     34 H         -11.9458   -6.2935   -0.2695 H       1  LIG1        0.0643
     35 H          -0.7791    1.3728   -2.2276 H       1  LIG1        0.0652
     36 H         -12.8627   -2.5355    1.5478 H       1  LIG1        0.0650
     37 H         -10.4561   -0.9438    2.1751 H       1  LIG1        0.0651
     38 H          -4.0840    0.1781   -4.6519 H       1  LIG1        0.0840
     39 H          -3.6597    0.5850    0.8846 H       1  LIG1        0.0485
     40 H          -5.2449    0.7682    0.0969 H       1  LIG1        0.0485
     41 H          -6.0900   -0.7493   -1.2868 H       1  LIG1        0.0485
     42 H          -5.2421   -2.2566   -1.7065 H       1  LIG1        0.0485
     43 H          -4.5417   -1.2169    2.3098 H       1  LIG1        0.0486
     44 H          -5.5744    0.2269    2.4710 H       1  LIG1        0.0486
     45 H          -5.6073   -3.1307    0.5646 H       1  LIG1        0.0486
     46 H          -7.1684   -2.6354   -0.1391 H       1  LIG1        0.0486
     47 H           1.1175    1.5817    1.0777 H       1  LIG1        0.0254
     48 H          -0.4555    1.5382    1.9096 H       1  LIG1        0.0254
     49 H           0.3862    0.0196    1.5174 H       1  LIG1        0.0254
     50 H         -14.8652   -4.1571    3.3074 H       1  LIG1        0.0442
     51 H         -14.6187   -5.7712    4.0160 H       1  LIG1        0.0442
     52 H         -13.2340   -4.8678    3.3564 H       1  LIG1        0.0442
     53 H          -0.7404    2.0049   -0.5090 H       1  LIG1        0.0569
     54 H           0.1012    0.4863   -0.9012 H       1  LIG1        0.0569
     55 H          -7.7355   -3.7480    0.7043 H       1  LIG1        0.1529
     56 H         -14.4724   -4.3045   -0.0996 H       1  LIG1        0.1702
@<TRIPOS>BOND
     1     1     4   ar
     2     1     7   ar
     3     2     3   ar
     4     2     9   ar
     5     3    10   ar
     6     4    11   ar
     7     5     8   ar
     8     5    10   ar
     9     6     8   ar
    10     6    12   ar
    11     7    22   ar
    12     8     9   ar
    13     9    23   ar
    14    10    26    1
    15    11    13   ar
    16    11    30    1
    17    12    14    1
    18    12    23   ar
    19    13    22   ar
    20    13    24    1
    21    14    25   am
    22    14    27    2
    23    15    17    1
    24    15    24    1
    25    16    18    1
    26    16    24    1
    27    17    25    1
    28    18    25    1
    29    19    21    1
    30    20    31    1
    31    21    30    1
    32    26    31    1
    33    28    31    2
    34    29    31    2
    35     1    32    1
    36     2    33    1
    37     3    34    1
    38     4    35    1
    39     5    36    1
    40     6    37    1
    41     7    38    1
    42    15    39    1
    43    15    40    1
    44    16    41    1
    45    16    42    1
    46    17    43    1
    47    17    44    1
    48    18    45    1
    49    18    46    1
    50    19    47    1
    51    19    48    1
    52    19    49    1
    53    20    50    1
    54    20    51    1
    55    20    52    1
    56    21    53    1
    57    21    54    1
    58    23    55    1
    59    26    56    1
