@<TRIPOS>MOLECULE
ChEBML1137609
 49 52 0 0 0
SMALL
USER_CHARGES

@<TRIPOS>ATOM
      1 C          -3.5727    1.2882   -3.1802 C.ar    1  LIG1       -0.0602
      2 C          -2.3162    0.8740   -3.5816 C.ar    1  LIG1       -0.0595
      3 C         -13.0413   -2.3460    1.7177 C.ar    1  LIG1       -0.0498
      4 C         -12.6511   -4.4866    0.6798 C.ar    1  LIG1       -0.0498
      5 C          -4.1987    0.6726   -2.1125 C.ar    1  LIG1       -0.0382
      6 C          -1.6792   -0.1579   -2.9172 C.ar    1  LIG1       -0.0299
      7 C         -14.4000   -2.5853    1.6902 C.ar    1  LIG1       -0.0257
      8 C         -14.0110   -4.7204    0.6613 C.ar    1  LIG1       -0.0257
      9 C         -10.0602   -1.8964    1.7477 C.ar    1  LIG1       -0.0059
     10 C         -12.1580   -3.2983    1.2142 C.ar    1  LIG1        0.0020
     11 C          -3.5679   -0.3668   -1.4446 C.ar    1  LIG1        0.0594
     12 C          -2.2993   -0.7796   -1.8460 C.ar    1  LIG1        0.0957
     13 C         -14.8860   -3.7707    1.1631 C.ar    1  LIG1        0.1228
     14 C         -10.6955   -3.0449    1.2414 C.ar    1  LIG1        0.0905
     15 C          -8.7088   -2.1139    1.5587 C.ar    1  LIG1        0.1123
     16 C          -7.6106   -1.2035    1.9218 C.2     1  LIG1        0.2614
     17 C          -4.5629    0.0614    0.5851 C.3     1  LIG1        0.0275
     18 C          -5.4512   -1.5640   -0.8857 C.3     1  LIG1        0.0275
     19 C          -5.2435   -0.5604    1.8087 C.3     1  LIG1        0.0303
     20 C          -6.1905   -2.2931    0.2408 C.3     1  LIG1        0.0303
     21 C          -0.4086   -1.9798   -1.8295 C.3     1  LIG1        0.0423
     22 N          -9.7576   -3.8544    0.7967 N.ar    1  LIG1       -0.1834
     23 N          -8.5934   -3.3381    0.9625 N.ar    1  LIG1       -0.2326
     24 N          -4.2020   -0.9956   -0.3667 N.pl3   1  LIG1       -0.3255
     25 N          -6.3994   -1.3462    1.3479 N.am    1  LIG1       -0.2935
     26 O          -7.7959   -0.3227    2.7397 O.2     1  LIG1       -0.2701
     27 O          -1.6736   -1.7944   -1.1913 O.3     1  LIG1       -0.3473
     28 F         -16.2169   -4.0014    1.1387 F       1  LIG1       -0.2069
     29 H          -4.0663    2.0947   -3.7019 H       1  LIG1        0.0623
     30 H          -1.8307    1.3581   -4.4162 H       1  LIG1        0.0623
     31 H         -12.6633   -1.4219    2.1295 H       1  LIG1        0.0631
     32 H         -11.9700   -5.2255    0.2843 H       1  LIG1        0.0631
     33 H          -5.1800    0.9983   -1.8008 H       1  LIG1        0.0643
     34 H          -0.6976   -0.4789   -3.2333 H       1  LIG1        0.0651
     35 H         -15.0855   -1.8476    2.0803 H       1  LIG1        0.0653
     36 H         -14.3940   -5.6434    0.2516 H       1  LIG1        0.0653
     37 H         -10.5288   -1.0297    2.1902 H       1  LIG1        0.0668
     38 H          -3.6627    0.5894    0.8996 H       1  LIG1        0.0485
     39 H          -5.2464    0.7628    0.1067 H       1  LIG1        0.0485
     40 H          -6.0805   -0.7634   -1.2743 H       1  LIG1        0.0485
     41 H          -5.2245   -2.2682   -1.6863 H       1  LIG1        0.0485
     42 H          -4.5406   -1.2116    2.3284 H       1  LIG1        0.0486
     43 H          -5.5805    0.2282    2.4815 H       1  LIG1        0.0486
     44 H          -5.5925   -3.1362    0.5868 H       1  LIG1        0.0486
     45 H          -7.1537   -2.6504   -0.1233 H       1  LIG1        0.0486
     46 H           0.1321   -2.7876   -1.3365 H       1  LIG1        0.0535
     47 H          -0.5644   -2.2338   -2.8781 H       1  LIG1        0.0535
     48 H           0.1713   -1.0595   -1.7610 H       1  LIG1        0.0535
     49 H          -7.7568   -3.7562    0.7055 H       1  LIG1        0.1757
@<TRIPOS>BOND
     1     1     2   ar
     2     1     5   ar
     3     2     6   ar
     4     3     7   ar
     5     3    10   ar
     6     4     8   ar
     7     4    10   ar
     8     5    11   ar
     9     6    12   ar
    10     7    13   ar
    11     8    13   ar
    12     9    14   ar
    13     9    15   ar
    14    10    14    1
    15    11    12   ar
    16    11    24    1
    17    12    27    1
    18    13    28    1
    19    14    22   ar
    20    15    16    1
    21    15    23   ar
    22    16    25   am
    23    16    26    2
    24    17    19    1
    25    17    24    1
    26    18    20    1
    27    18    24    1
    28    19    25    1
    29    20    25    1
    30    21    27    1
    31    22    23   ar
    32     1    29    1
    33     2    30    1
    34     3    31    1
    35     4    32    1
    36     5    33    1
    37     6    34    1
    38     7    35    1
    39     8    36    1
    40     9    37    1
    41    17    38    1
    42    17    39    1
    43    18    40    1
    44    18    41    1
    45    19    42    1
    46    19    43    1
    47    20    44    1
    48    20    45    1
    49    21    46    1
    50    21    47    1
    51    21    48    1
    52    23    49    1
