@<TRIPOS>MOLECULE
ChEBML146292
 55 59 0 0 0
SMALL
USER_CHARGES

@<TRIPOS>ATOM
      1 C         -11.2160   -2.1260    2.3481 C.ar    1  LIG1       -0.0375
      2 C          -9.9619   -1.6106    2.0194 C.ar    1  LIG1       -0.0299
      3 C          -9.5842   -3.4547    0.4979 C.ar    1  LIG1       -0.0226
      4 C         -10.8394   -3.9828    0.8179 C.ar    1  LIG1        0.0007
      5 C         -11.6662   -3.3105    1.7551 C.ar    1  LIG1        0.0390
      6 C          -9.1496   -2.2722    1.0983 C.ar    1  LIG1        0.0757
      7 C          -3.3585   -0.2170   -1.2912 C.ar    1  LIG1        0.1425
      8 C         -11.3054   -5.2345    0.1854 C.ar    1  LIG1       -0.0234
      9 C         -12.5063   -5.7218    0.5045 C.ar    1  LIG1        0.1088
     10 C         -13.3500   -5.0029    1.4845 C.ar    1  LIG1        0.1524
     11 C         -14.2865   -6.7481    0.7625 C.ar    1  LIG1        0.2665
     12 C           0.4291   -3.9964   -2.2814 C.3     1  LIG1       -0.0532
     13 C           0.9754   -2.6453   -1.8282 C.3     1  LIG1       -0.0515
     14 C          -0.9607   -4.2646   -1.7100 C.3     1  LIG1       -0.0515
     15 C           0.0135   -1.5068   -2.1632 C.3     1  LIG1       -0.0324
     16 C          -1.9354   -3.1368   -2.0442 C.3     1  LIG1       -0.0324
     17 C          -1.3887   -1.7728   -1.5908 C.3     1  LIG1        0.0488
     18 C          -3.7980   -0.7163    0.0614 C.3     1  LIG1        0.0071
     19 C          -5.3146   -0.6124    0.2372 C.3     1  LIG1       -0.0441
     20 C          -5.7529   -1.1540    1.5963 C.3     1  LIG1       -0.0286
     21 C          -7.2551   -1.0162    1.7979 C.3     1  LIG1        0.0533
     22 N          -3.8987    0.7388   -2.0116 N.ar    1  LIG1       -0.1165
     23 N          -3.1386    0.8154   -3.1568 N.ar    1  LIG1       -0.0259
     24 N          -2.1538   -0.0744   -3.1361 N.ar    1  LIG1       -0.0537
     25 N         -13.1792   -6.8333    0.0867 N.ar    1  LIG1       -0.2034
     26 N         -14.4598   -5.6790    1.6197 N.ar    1  LIG1       -0.1890
     27 N          -2.2934   -0.7186   -1.9691 N.ar    1  LIG1       -0.1866
     28 N         -12.9322   -3.8416    2.0791 N.ar    1  LIG1       -0.2972
     29 O         -15.2988   -7.6346    0.6938 O.3     1  LIG1       -0.3296
     30 O          -7.9269   -1.7617    0.7841 O.3     1  LIG1       -0.3460
     31 H         -11.8367   -1.5984    3.0677 H       1  LIG1        0.0643
     32 H          -9.6222   -0.6898    2.4865 H       1  LIG1        0.0651
     33 H          -8.9392   -3.9585   -0.2185 H       1  LIG1        0.0657
     34 H         -10.6600   -5.7360   -0.5272 H       1  LIG1        0.0654
     35 H           0.3852   -4.0240   -3.3772 H       1  LIG1        0.0266
     36 H           1.1141   -4.7927   -1.9687 H       1  LIG1        0.0266
     37 H           1.1514   -2.6668   -0.7458 H       1  LIG1        0.0267
     38 H           1.9443   -2.4604   -2.3055 H       1  LIG1        0.0267
     39 H          -1.3452   -5.2120   -2.1045 H       1  LIG1        0.0267
     40 H          -0.8926   -4.3764   -0.6209 H       1  LIG1        0.0267
     41 H           0.4088   -0.5629   -1.7684 H       1  LIG1        0.0286
     42 H          -0.0439   -1.3883   -3.2535 H       1  LIG1        0.0286
     43 H          -2.1199   -3.1248   -3.1266 H       1  LIG1        0.0286
     44 H          -2.9029   -3.3328   -1.5662 H       1  LIG1        0.0286
     45 H          -1.3494   -1.7400   -0.4956 H       1  LIG1        0.0528
     46 H          -3.2862   -0.1431    0.8449 H       1  LIG1        0.0347
     47 H          -3.4728   -1.7566    0.1885 H       1  LIG1        0.0347
     48 H          -5.6302    0.4341    0.1402 H       1  LIG1        0.0272
     49 H          -5.8214   -1.1703   -0.5603 H       1  LIG1        0.0272
     50 H          -5.4687   -2.2093    1.6940 H       1  LIG1        0.0290
     51 H          -5.2283   -0.6264    2.4028 H       1  LIG1        0.0290
     52 H          -7.5556   -1.4078    2.7750 H       1  LIG1        0.0572
     53 H          -7.5649    0.0311    1.7229 H       1  LIG1        0.0572
     54 H         -13.5089   -3.3475    2.7487 H       1  LIG1        0.1544
     55 H         -15.1022   -8.3568    0.0705 H       1  LIG1        0.2216
@<TRIPOS>BOND
     1     1     2   ar
     2     1     5   ar
     3     2     6   ar
     4     3     4   ar
     5     3     6   ar
     6     4     5   ar
     7     4     8   ar
     8     5    28   ar
     9     6    30    1
    10     7    18    1
    11     7    22   ar
    12     7    27   ar
    13     8     9   ar
    14     9    10   ar
    15     9    25   ar
    16    10    26   ar
    17    10    28   ar
    18    11    25   ar
    19    11    26   ar
    20    11    29    1
    21    12    13    1
    22    12    14    1
    23    13    15    1
    24    14    16    1
    25    15    17    1
    26    16    17    1
    27    17    27    1
    28    18    19    1
    29    19    20    1
    30    20    21    1
    31    21    30    1
    32    22    23   ar
    33    23    24   ar
    34    24    27   ar
    35     1    31    1
    36     2    32    1
    37     3    33    1
    38     8    34    1
    39    12    35    1
    40    12    36    1
    41    13    37    1
    42    13    38    1
    43    14    39    1
    44    14    40    1
    45    15    41    1
    46    15    42    1
    47    16    43    1
    48    16    44    1
    49    17    45    1
    50    18    46    1
    51    18    47    1
    52    19    48    1
    53    19    49    1
    54    20    50    1
    55    20    51    1
    56    21    52    1
    57    21    53    1
    58    28    54    1
    59    29    55    1
