@<TRIPOS>MOLECULE
ChEBML793058
 48 50 0 0 0
SMALL
USER_CHARGES

@<TRIPOS>ATOM
      1 C         -11.8880   -5.1706    0.5217 C.ar    1  LIG1       -0.0616
      2 C         -12.6008   -4.4383    1.4666 C.ar    1  LIG1       -0.0616
      3 C          -1.7250    0.2430   -3.3363 C.ar    1  LIG1       -0.0545
      4 C         -10.5655   -4.8352    0.2305 C.ar    1  LIG1       -0.0543
      5 C         -11.9936   -3.3678    2.1238 C.ar    1  LIG1       -0.0543
      6 C          -2.5806   -0.2550   -2.3116 C.ar    1  LIG1       -0.0462
      7 C          -8.6081   -3.4092    0.6019 C.ar    1  LIG1       -0.0391
      8 C         -10.0362   -1.9418    2.4951 C.ar    1  LIG1       -0.0231
      9 C          -2.3433    1.2049   -4.1045 C.ar    1  LIG1       -0.0243
     10 C          -9.9385   -3.7608    0.8825 C.ar    1  LIG1       -0.0174
     11 C         -10.6633   -3.0162    1.8432 C.ar    1  LIG1       -0.0157
     12 C          -8.0010   -2.3387    1.2591 C.ar    1  LIG1        0.0679
     13 C          -8.7137   -1.6064    2.2039 C.ar    1  LIG1        0.0877
     14 C          -3.8203    0.3454   -2.3355 C.ar    1  LIG1        0.0375
     15 C          -6.6196   -2.0042    0.9416 C.2     1  LIG1        0.2458
     16 C          -3.6875    1.2556    0.3485 C.3     1  LIG1       -0.0450
     17 C          -5.6863    2.3636   -0.6402 C.3     1  LIG1       -0.0450
     18 C          -8.2648    0.7285    2.2524 C.3     1  LIG1        0.0423
     19 C          -5.0173   -1.3230   -0.8596 C.3     1  LIG1        0.0583
     20 C          -5.0022    0.1011   -1.4236 C.3     1  LIG1        0.0243
     21 N          -6.3406   -1.6571   -0.3843 N.am    1  LIG1       -0.3053
     22 N          -5.0434    1.0557   -0.2700 N.4     1  LIG1        0.2487
     23 O          -5.7425   -2.0525    1.8208 O.2     1  LIG1       -0.2717
     24 O          -8.1373   -0.5571    2.8557 O.3     1  LIG1       -0.3485
     25 S          -3.9488    1.5041   -3.5899 S.2     1  LIG1       -0.0966
     26 H         -12.3611   -6.0042    0.0108 H       1  LIG1        0.0623
     27 H         -13.6305   -4.6999    1.6924 H       1  LIG1        0.0623
     28 H          -0.7075   -0.0862   -3.5016 H       1  LIG1        0.0628
     29 H         -10.0273   -5.4217   -0.5111 H       1  LIG1        0.0629
     30 H         -12.5700   -2.8099    2.8589 H       1  LIG1        0.0629
     31 H          -2.2958   -1.0144   -1.5944 H       1  LIG1        0.0633
     32 H          -8.0412   -3.9754   -0.1357 H       1  LIG1        0.0638
     33 H         -10.5803   -1.3591    3.2367 H       1  LIG1        0.0657
     34 H          -1.9291    1.7458   -4.9437 H       1  LIG1        0.0700
     35 H          -3.0403    1.7082   -0.4049 H       1  LIG1        0.0777
     36 H          -3.8073    1.9148    1.2104 H       1  LIG1        0.0777
     37 H          -3.3113    0.2768    0.6522 H       1  LIG1        0.0777
     38 H          -5.0696    2.8332   -1.4087 H       1  LIG1        0.0777
     39 H          -6.6879    2.1487   -1.0177 H       1  LIG1        0.0777
     40 H          -5.7300    2.9808    0.2592 H       1  LIG1        0.0777
     41 H          -7.7618    1.4744    2.8726 H       1  LIG1        0.0535
     42 H          -9.3233    0.9797    2.1481 H       1  LIG1        0.0535
     43 H          -7.7987    0.7053    1.2644 H       1  LIG1        0.0535
     44 H          -4.3247   -1.4136   -0.0149 H       1  LIG1        0.0529
     45 H          -4.7234   -2.0634   -1.6122 H       1  LIG1        0.0529
     46 H          -5.9343    0.2877   -1.9712 H       1  LIG1        0.0928
     47 H          -7.0831   -1.6951   -1.0750 H       1  LIG1        0.1499
     48 H          -5.6384    0.6287    0.4545 H       1  LIG1        0.2005
@<TRIPOS>BOND
     1     1     2   ar
     2     1     4   ar
     3     2     5   ar
     4     3     6   ar
     5     3     9   ar
     6     4    10   ar
     7     5    11   ar
     8     6    14   ar
     9     7    10   ar
    10     7    12   ar
    11     8    11   ar
    12     8    13   ar
    13     9    25   ar
    14    10    11   ar
    15    12    13   ar
    16    12    15    1
    17    13    24    1
    18    14    20    1
    19    14    25   ar
    20    15    21   am
    21    15    23    2
    22    16    22    1
    23    17    22    1
    24    18    24    1
    25    19    20    1
    26    19    21    1
    27    20    22    1
    28     1    26    1
    29     2    27    1
    30     3    28    1
    31     4    29    1
    32     5    30    1
    33     6    31    1
    34     7    32    1
    35     8    33    1
    36     9    34    1
    37    16    35    1
    38    16    36    1
    39    16    37    1
    40    17    38    1
    41    17    39    1
    42    17    40    1
    43    18    41    1
    44    18    42    1
    45    18    43    1
    46    19    44    1
    47    19    45    1
    48    20    46    1
    49    21    47    1
    50    22    48    1
