@<TRIPOS>MOLECULE
ChEBML855408
 56 59 0 0 0
SMALL
USER_CHARGES

@<TRIPOS>ATOM
      1 C         -16.5025   -7.0977    0.9738 C.ar    1  LIG1       -0.0622
      2 C          -3.7461    1.1924   -3.1448 C.ar    1  LIG1       -0.0602
      3 C          -2.5471    0.6888   -3.6140 C.ar    1  LIG1       -0.0595
      4 C         -15.6024   -6.5063    0.1062 C.ar    1  LIG1       -0.0611
      5 C         -16.3491   -6.9513    2.3405 C.ar    1  LIG1       -0.0611
      6 C          -8.6915   -3.1669    1.8119 C.ar    1  LIG1       -0.0494
      7 C         -10.0608   -1.1794    1.7691 C.ar    1  LIG1       -0.0494
      8 C          -9.8050   -3.9316    1.5316 C.ar    1  LIG1       -0.0574
      9 C         -11.1653   -1.9549    1.4829 C.ar    1  LIG1       -0.0574
     10 C          -4.3455    0.6341   -2.0314 C.ar    1  LIG1       -0.0382
     11 C          -1.9413   -0.3757   -2.9721 C.ar    1  LIG1       -0.0299
     12 C         -14.5465   -5.7675    0.6021 C.ar    1  LIG1       -0.0486
     13 C         -15.2920   -6.2190    2.8437 C.ar    1  LIG1       -0.0486
     14 C          -8.8120   -1.7813    1.9302 C.ar    1  LIG1        0.0372
     15 C         -11.0391   -3.3279    1.3674 C.ar    1  LIG1       -0.0376
     16 C          -3.7463   -0.4374   -1.3855 C.ar    1  LIG1        0.0594
     17 C          -2.5352   -0.9405   -1.8556 C.ar    1  LIG1        0.0957
     18 C         -14.3888   -5.6186    1.9747 C.ar    1  LIG1        0.0076
     19 C          -7.6230   -0.9556    2.2309 C.2     1  LIG1        0.2456
     20 C          -4.5846    0.0824    0.6929 C.3     1  LIG1        0.0275
     21 C          -5.6681   -1.4969   -0.6949 C.3     1  LIG1        0.0275
     22 C          -5.2295   -0.4763    1.9653 C.3     1  LIG1        0.0302
     23 C          -6.3845   -2.1600    0.4859 C.3     1  LIG1        0.0302
     24 C          -0.7318   -2.2661   -1.9329 C.3     1  LIG1        0.0423
     25 C         -12.2510   -4.1695    1.0609 C.3     1  LIG1        0.0232
     26 N          -4.3542   -1.0082   -0.2613 N.pl3   1  LIG1       -0.3255
     27 N          -6.4615   -1.1874    1.5878 N.am    1  LIG1       -0.2947
     28 O          -7.6930   -0.0679    3.0582 O.2     1  LIG1       -0.2716
     29 O          -1.9403   -1.9873   -1.2229 O.3     1  LIG1       -0.3473
     30 S         -13.0429   -4.6767    2.6121 S.3     1  LIG1       -0.1213
     31 H         -17.3275   -7.6749    0.5832 H       1  LIG1        0.0622
     32 H          -4.2153    2.0241   -3.6492 H       1  LIG1        0.0623
     33 H          -2.0821    1.1284   -4.4841 H       1  LIG1        0.0623
     34 H         -15.7258   -6.6223   -0.9605 H       1  LIG1        0.0623
     35 H         -17.0541   -7.4141    3.0151 H       1  LIG1        0.0623
     36 H          -7.7286   -3.6392    1.9391 H       1  LIG1        0.0631
     37 H         -10.1615   -0.1082    1.8638 H       1  LIG1        0.0631
     38 H          -9.7131   -5.0037    1.4398 H       1  LIG1        0.0626
     39 H         -12.1314   -1.4898    1.3533 H       1  LIG1        0.0626
     40 H          -5.2820    1.0297   -1.6667 H       1  LIG1        0.0643
     41 H          -1.0047   -0.7666   -3.3413 H       1  LIG1        0.0651
     42 H         -13.8441   -5.3058   -0.0761 H       1  LIG1        0.0634
     43 H         -15.1699   -6.1094    3.9112 H       1  LIG1        0.0634
     44 H          -3.6335    0.5520    0.9440 H       1  LIG1        0.0485
     45 H          -5.2475    0.8228    0.2450 H       1  LIG1        0.0485
     46 H          -6.2648   -0.6602   -1.0581 H       1  LIG1        0.0485
     47 H          -5.5385   -2.2247   -1.4960 H       1  LIG1        0.0485
     48 H          -4.5415   -1.1673    2.4525 H       1  LIG1        0.0486
     49 H          -5.4710    0.3416    2.6440 H       1  LIG1        0.0486
     50 H          -5.8245   -3.0374    0.8092 H       1  LIG1        0.0486
     51 H          -7.3899   -2.4555    0.1862 H       1  LIG1        0.0486
     52 H          -0.2173   -3.1026   -1.4600 H       1  LIG1        0.0535
     53 H          -0.9681   -2.5219   -2.9658 H       1  LIG1        0.0535
     54 H          -0.0884   -1.3865   -1.9145 H       1  LIG1        0.0535
     55 H         -12.9558   -3.5885    0.4661 H       1  LIG1        0.0434
     56 H         -11.9468   -5.0545    0.5019 H       1  LIG1        0.0434
@<TRIPOS>BOND
     1     1     4   ar
     2     1     5   ar
     3     2     3   ar
     4     2    10   ar
     5     3    11   ar
     6     4    12   ar
     7     5    13   ar
     8     6     8   ar
     9     6    14   ar
    10     7     9   ar
    11     7    14   ar
    12     8    15   ar
    13     9    15   ar
    14    10    16   ar
    15    11    17   ar
    16    12    18   ar
    17    13    18   ar
    18    14    19    1
    19    15    25    1
    20    16    17   ar
    21    16    26    1
    22    17    29    1
    23    18    30    1
    24    19    27   am
    25    19    28    2
    26    20    22    1
    27    20    26    1
    28    21    23    1
    29    21    26    1
    30    22    27    1
    31    23    27    1
    32    24    29    1
    33    25    30    1
    34     1    31    1
    35     2    32    1
    36     3    33    1
    37     4    34    1
    38     5    35    1
    39     6    36    1
    40     7    37    1
    41     8    38    1
    42     9    39    1
    43    10    40    1
    44    11    41    1
    45    12    42    1
    46    13    43    1
    47    20    44    1
    48    20    45    1
    49    21    46    1
    50    21    47    1
    51    22    48    1
    52    22    49    1
    53    23    50    1
    54    23    51    1
    55    24    52    1
    56    24    53    1
    57    24    54    1
    58    25    55    1
    59    25    56    1
