@<TRIPOS>MOLECULE
ChEBML1085733
 47 50 0 0 0
SMALL
USER_CHARGES

@<TRIPOS>ATOM
      1 C         -11.6841   -5.6181    0.5820 C.ar    1  LIG1       -0.0600
      2 C         -12.4880   -5.0348    1.5551 C.ar    1  LIG1       -0.0610
      3 C         -10.4312   -5.0777    0.2779 C.ar    1  LIG1       -0.0352
      4 C          -2.2629   -0.7187   -1.7921 C.ar    1  LIG1       -0.0393
      5 C          -4.0855    0.8662   -1.8510 C.ar    1  LIG1       -0.0393
      6 C         -12.0635   -3.8988    2.2490 C.ar    1  LIG1       -0.0459
      7 C          -1.8243   -0.2605   -3.0344 C.ar    1  LIG1       -0.0417
      8 C          -3.6469    1.3243   -3.0933 C.ar    1  LIG1       -0.0417
      9 C          -9.9782   -3.9301    0.9640 C.ar    1  LIG1        0.0799
     10 C          -3.3936   -0.1554   -1.2004 C.ar    1  LIG1        0.0301
     11 C         -10.8041   -3.3612    1.9382 C.ar    1  LIG1        0.0409
     12 C          -2.5162    0.7610   -3.6851 C.ar    1  LIG1        0.0407
     13 C          -8.6789   -2.2566    1.5792 C.ar    1  LIG1        0.1885
     14 C          -5.7011   -0.2896    1.4335 C.2     1  LIG1        0.0799
     15 C          -6.5450    0.3301    2.4550 C.2     1  LIG1        0.0834
     16 C          -6.4701   -1.4449    0.9310 C.2     1  LIG1        0.2751
     17 C          -4.4926    0.0840    1.0194 C.2     1  LIG1        0.0185
     18 C          -7.2553    1.9293    4.2052 C.2     1  LIG1        0.2667
     19 C          -3.7628    1.2739    1.5717 C.3     1  LIG1       -0.0256
     20 C          -8.7360    3.7047    4.7154 C.3     1  LIG1        0.0453
     21 C          -6.1618    1.5400    3.2360 C.3     1  LIG1        0.0786
     22 N          -8.7648   -3.2863    0.7698 N.ar    1  LIG1       -0.2236
     23 N          -7.6711   -0.3133    2.5967 N.2     1  LIG1       -0.1749
     24 N          -7.6413   -1.3705    1.6968 N.am    1  LIG1       -0.1314
     25 N          -3.8330   -0.6157    0.0416 N.pl3   1  LIG1       -0.3178
     26 O          -6.1293   -2.2323    0.0691 O.2     1  LIG1       -0.2691
     27 O          -7.6956    1.2282    5.1059 O.2     1  LIG1       -0.2661
     28 O          -7.6817    3.1910    3.8950 O.3     1  LIG1       -0.3190
     29 S         -10.0146   -1.9846    2.6125 S.2     1  LIG1       -0.0499
     30 CL         -1.9747    1.3260   -5.2176 Cl      1  LIG1       -0.0843
     31 H         -12.0307   -6.5017    0.0530 H       1  LIG1        0.0623
     32 H         -13.4599   -5.4666    1.7800 H       1  LIG1        0.0623
     33 H          -9.8118   -5.5411   -0.4848 H       1  LIG1        0.0646
     34 H          -1.7173   -1.5158   -1.2939 H       1  LIG1        0.0643
     35 H          -4.9687    1.3111   -1.3996 H       1  LIG1        0.0643
     36 H         -12.6958   -3.4494    3.0085 H       1  LIG1        0.0635
     37 H          -0.9428   -0.7103   -3.4839 H       1  LIG1        0.0639
     38 H          -4.1975    2.1199   -3.5892 H       1  LIG1        0.0639
     39 H          -3.1461    0.9845    2.4291 H       1  LIG1        0.0293
     40 H          -4.4549    2.0536    1.9075 H       1  LIG1        0.0293
     41 H          -3.1109    1.7140    0.8096 H       1  LIG1        0.0293
     42 H          -8.9987    4.7123    4.3837 H       1  LIG1        0.0536
     43 H          -8.4099    3.7262    5.7583 H       1  LIG1        0.0536
     44 H          -9.6085    3.0538    4.6218 H       1  LIG1        0.0536
     45 H          -5.9911    2.3758    2.5515 H       1  LIG1        0.0440
     46 H          -5.2447    1.3276    3.7923 H       1  LIG1        0.0440
     47 H          -3.6532   -1.5797    0.2696 H       1  LIG1        0.1524
@<TRIPOS>BOND
     1     1     2   ar
     2     1     3   ar
     3     2     6   ar
     4     3     9   ar
     5     4     7   ar
     6     4    10   ar
     7     5     8   ar
     8     5    10   ar
     9     6    11   ar
    10     7    12   ar
    11     8    12   ar
    12     9    11   ar
    13     9    22   ar
    14    10    25    1
    15    11    29   ar
    16    12    30    1
    17    13    22   ar
    18    13    24    1
    19    13    29   ar
    20    14    15    1
    21    14    16    1
    22    14    17    2
    23    15    21    1
    24    15    23    2
    25    16    24   am
    26    16    26    2
    27    17    19    1
    28    17    25    1
    29    18    21    1
    30    18    27    2
    31    18    28    1
    32    20    28    1
    33    23    24    1
    34     1    31    1
    35     2    32    1
    36     3    33    1
    37     4    34    1
    38     5    35    1
    39     6    36    1
    40     7    37    1
    41     8    38    1
    42    19    39    1
    43    19    40    1
    44    19    41    1
    45    20    42    1
    46    20    43    1
    47    20    44    1
    48    21    45    1
    49    21    46    1
    50    25    47    1
