@<TRIPOS>MOLECULE
ChEBML311998
 50 54 0 0 0
SMALL
USER_CHARGES

@<TRIPOS>ATOM
      1 C          -0.7706    0.3921   -4.8425 C.ar    1  LIG1       -0.0613
      2 C         -12.7878   -4.1696    1.3778 C.ar    1  LIG1       -0.0615
      3 C          -1.1962    1.7040   -4.6670 C.ar    1  LIG1       -0.0601
      4 C         -12.0761   -5.3286    1.0754 C.ar    1  LIG1       -0.0603
      5 C         -12.1217   -2.9644    1.6267 C.ar    1  LIG1       -0.0527
      6 C          -1.3453   -0.6232   -4.0843 C.ar    1  LIG1       -0.0485
      7 C          -2.1952    1.9982   -3.7344 C.ar    1  LIG1       -0.0356
      8 C         -10.6799   -5.3210    1.0116 C.ar    1  LIG1       -0.0402
      9 C         -10.7138   -2.9303    1.5696 C.ar    1  LIG1        0.0009
     10 C          -2.3494   -0.3193   -3.1485 C.ar    1  LIG1        0.0498
     11 C          -9.7340   -1.9170    1.7600 C.ar    1  LIG1       -0.0111
     12 C          -2.7878    1.0019   -2.9623 C.ar    1  LIG1        0.0767
     13 C         -10.0249   -4.1095    1.2617 C.ar    1  LIG1        0.0379
     14 C          -8.4999   -2.4957    1.5607 C.ar    1  LIG1        0.0558
     15 C          -2.9647   -1.2870   -2.3594 C.ar    1  LIG1        0.1753
     16 C          -4.2653    0.2768   -1.3664 C.ar    1  LIG1        0.1318
     17 C          -9.8767   -0.4707    2.0887 C.3     1  LIG1        0.0140
     18 C          -7.1964   -1.8044    1.6766 C.3     1  LIG1        0.0053
     19 C          -8.5622    0.1154    2.6320 C.3     1  LIG1       -0.0297
     20 C          -5.3401    0.6235   -0.3673 C.3     1  LIG1        0.0125
     21 C          -5.0383    0.1480    1.0600 C.3     1  LIG1       -0.0065
     22 C          -6.1287    0.4310    2.0888 C.3     1  LIG1       -0.0335
     23 N          -3.7474    1.3038   -2.0704 N.ar    1  LIG1       -0.2327
     24 N          -3.9278   -1.0197   -1.4573 N.ar    1  LIG1       -0.2087
     25 N          -8.6773   -3.8149    1.2650 N.ar    1  LIG1       -0.3132
     26 N          -7.3979   -0.2864    1.7285 N.4     1  LIG1        0.2505
     27 O          -2.6038   -2.6049   -2.4689 O.3     1  LIG1       -0.3445
     28 H           0.0062    0.1615   -5.5650 H       1  LIG1        0.0623
     29 H         -13.8733   -4.2004    1.4210 H       1  LIG1        0.0623
     30 H          -0.7531    2.5030   -5.2545 H       1  LIG1        0.0623
     31 H         -12.6137   -6.2541    0.8856 H       1  LIG1        0.0623
     32 H         -12.6901   -2.0688    1.8612 H       1  LIG1        0.0630
     33 H          -1.0020   -1.6436   -4.2326 H       1  LIG1        0.0631
     34 H          -2.5100    3.0333   -3.6153 H       1  LIG1        0.0645
     35 H         -10.1275   -6.2243    0.7752 H       1  LIG1        0.0642
     36 H         -10.1698    0.0698    1.1804 H       1  LIG1        0.0371
     37 H         -10.6717   -0.3225    2.8280 H       1  LIG1        0.0371
     38 H          -6.6876   -2.0936    2.6025 H       1  LIG1        0.0882
     39 H          -6.5499   -2.0039    0.8162 H       1  LIG1        0.0882
     40 H          -8.6065    1.2092    2.6483 H       1  LIG1        0.0818
     41 H          -8.3315   -0.2592    3.6360 H       1  LIG1        0.0818
     42 H          -5.5338    1.7027   -0.3770 H       1  LIG1        0.0351
     43 H          -6.2776    0.1608   -0.7032 H       1  LIG1        0.0351
     44 H          -4.1075    0.6104    1.4110 H       1  LIG1        0.0325
     45 H          -4.8498   -0.9329    1.0286 H       1  LIG1        0.0325
     46 H          -5.8324    0.0604    3.0747 H       1  LIG1        0.0815
     47 H          -6.3701    1.4946    2.1678 H       1  LIG1        0.0815
     48 H          -7.9385   -4.4790    1.0778 H       1  LIG1        0.1527
     49 H          -7.6458    0.0156    0.7760 H       1  LIG1        0.2007
     50 H          -3.1254   -3.1386   -1.8537 H       1  LIG1        0.2199
@<TRIPOS>BOND
     1     1     3   ar
     2     1     6   ar
     3     2     4   ar
     4     2     5   ar
     5     3     7   ar
     6     4     8   ar
     7     5     9   ar
     8     6    10   ar
     9     7    12   ar
    10     8    13   ar
    11     9    11   ar
    12     9    13   ar
    13    10    12   ar
    14    10    15   ar
    15    11    14   ar
    16    11    17    1
    17    12    23   ar
    18    13    25   ar
    19    14    18    1
    20    14    25   ar
    21    15    24   ar
    22    15    27    1
    23    16    20    1
    24    16    23   ar
    25    16    24   ar
    26    17    19    1
    27    18    26    1
    28    19    26    1
    29    20    21    1
    30    21    22    1
    31    22    26    1
    32     1    28    1
    33     2    29    1
    34     3    30    1
    35     4    31    1
    36     5    32    1
    37     6    33    1
    38     7    34    1
    39     8    35    1
    40    17    36    1
    41    17    37    1
    42    18    38    1
    43    18    39    1
    44    19    40    1
    45    19    41    1
    46    20    42    1
    47    20    43    1
    48    21    44    1
    49    21    45    1
    50    22    46    1
    51    22    47    1
    52    25    48    1
    53    26    49    1
    54    27    50    1
