@<TRIPOS>MOLECULE
ChEBML1147826
 58 63 0 0 0
SMALL
USER_CHARGES

@<TRIPOS>ATOM
      1 C         -12.2266   -5.0746    1.3394 C.ar    1  LIG1       -0.0615
      2 C         -11.1773   -5.8667    0.8662 C.ar    1  LIG1       -0.0596
      3 C         -12.0104   -3.7457    1.7292 C.ar    1  LIG1       -0.0522
      4 C          -9.8771   -5.3630    0.7649 C.ar    1  LIG1       -0.0306
      5 C          -5.5110    0.4109    1.7538 C.ar    1  LIG1       -0.0160
      6 C         -10.0981   -1.9690    1.9182 C.ar    1  LIG1       -0.0174
      7 C          -3.8040   -1.9524   -0.3765 C.ar    1  LIG1       -0.0244
      8 C          -6.5695    0.5234    2.6320 C.ar    1  LIG1        0.0316
      9 C         -10.7105   -3.2184    1.6356 C.ar    1  LIG1        0.0080
     10 C          -2.9328   -1.6549   -1.4526 C.ar    1  LIG1        0.0567
     11 C          -9.6931   -4.0391    1.1595 C.ar    1  LIG1        0.0895
     12 C          -5.6144   -0.6004    0.8206 C.ar    1  LIG1        0.0885
     13 C          -4.5769   -0.8327   -0.1552 C.ar    1  LIG1        0.0571
     14 C          -8.7670   -2.1088    1.6001 C.ar    1  LIG1        0.1273
     15 C          -3.1999   -0.3591   -1.8534 C.ar    1  LIG1        0.0281
     16 C          -7.6333   -1.2309    1.6533 C.ar    1  LIG1        0.1836
     17 C          -1.8954   -2.4501   -2.0781 C.2     1  LIG1        0.2446
     18 C          -1.3234    1.2109   -2.3229 C.3     1  LIG1       -0.0009
     19 C          -3.4171    1.3299   -3.7255 C.3     1  LIG1       -0.0009
     20 C          -1.9211   -0.7148   -3.9080 C.3     1  LIG1        0.0227
     21 C          -0.6116    2.1210   -3.3185 C.3     1  LIG1       -0.0334
     22 C          -2.6815    2.2065   -4.7324 C.3     1  LIG1       -0.0334
     23 C          -2.4738    0.3844   -2.9481 C.3     1  LIG1        0.0346
     24 C           0.0414    4.8125   -4.1390 C.3     1  LIG1       -0.0254
     25 C          -0.9513    3.9899   -4.9310 C.3     1  LIG1       -0.0373
     26 N          -7.6506   -0.2835    2.6102 N.ar    1  LIG1       -0.2347
     27 N          -6.6652   -1.4429    0.7416 N.ar    1  LIG1       -0.2248
     28 N          -4.1964    0.1332   -1.0527 N.ar    1  LIG1       -0.3153
     29 N          -1.3443   -1.8710   -3.2163 N.am    1  LIG1       -0.3104
     30 N          -1.6188    3.0015   -4.0142 N.4     1  LIG1        0.2458
     31 O          -1.5279   -3.5285   -1.6210 O.2     1  LIG1       -0.2718
     32 O          -8.5111   -3.3609    1.1392 O.2     1  LIG1       -0.3058
     33 H         -13.2265   -5.4953    1.4072 H       1  LIG1        0.0623
     34 H         -11.3754   -6.8939    0.5705 H       1  LIG1        0.0623
     35 H         -12.8353   -3.1423    2.0952 H       1  LIG1        0.0630
     36 H          -9.0584   -5.9711    0.3990 H       1  LIG1        0.0650
     37 H          -4.6611    1.0798    1.8074 H       1  LIG1        0.0662
     38 H         -10.5747   -1.0790    2.3056 H       1  LIG1        0.0659
     39 H          -3.8585   -2.8794    0.1786 H       1  LIG1        0.0652
     40 H          -6.5777    1.2886    3.4010 H       1  LIG1        0.0841
     41 H          -0.5830    0.5509   -1.8530 H       1  LIG1        0.0331
     42 H          -1.7232    1.8355   -1.5115 H       1  LIG1        0.0331
     43 H          -3.9486    1.9920   -3.0294 H       1  LIG1        0.0331
     44 H          -4.1941    0.7545   -4.2453 H       1  LIG1        0.0331
     45 H          -2.7336   -1.1213   -4.5241 H       1  LIG1        0.0476
     46 H          -1.1574   -0.3333   -4.5913 H       1  LIG1        0.0476
     47 H           0.0893    2.7797   -2.7946 H       1  LIG1        0.0815
     48 H          -0.0674    1.5614   -4.0857 H       1  LIG1        0.0815
     49 H          -2.1934    1.6248   -5.5210 H       1  LIG1        0.0815
     50 H          -3.3727    2.9232   -5.1882 H       1  LIG1        0.0815
     51 H          -0.4746    5.3770   -3.3564 H       1  LIG1        0.0284
     52 H           0.7899    4.1742   -3.6583 H       1  LIG1        0.0284
     53 H           0.5658    5.5270   -4.7821 H       1  LIG1        0.0284
     54 H          -0.4610    3.4149   -5.7212 H       1  LIG1        0.0811
     55 H          -1.7405    4.6128   -5.3611 H       1  LIG1        0.0811
     56 H          -4.5853    1.0648   -1.1045 H       1  LIG1        0.1526
     57 H          -0.4907   -2.2738   -3.5907 H       1  LIG1        0.1497
     58 H          -2.0922    3.5554   -3.2871 H       1  LIG1        0.2003
@<TRIPOS>BOND
     1     1     2   ar
     2     1     3   ar
     3     2     4   ar
     4     3     9   ar
     5     4    11   ar
     6     5     8   ar
     7     5    12   ar
     8     6     9   ar
     9     6    14   ar
    10     7    10   ar
    11     7    13   ar
    12     8    26   ar
    13     9    11   ar
    14    10    15   ar
    15    10    17    1
    16    11    32   ar
    17    12    13    1
    18    12    27   ar
    19    13    28   ar
    20    14    16    1
    21    14    32   ar
    22    15    23    1
    23    15    28   ar
    24    16    26   ar
    25    16    27   ar
    26    17    29   am
    27    17    31    2
    28    18    21    1
    29    18    23    1
    30    19    22    1
    31    19    23    1
    32    20    23    1
    33    20    29    1
    34    21    30    1
    35    22    30    1
    36    24    25    1
    37    25    30    1
    38     1    33    1
    39     2    34    1
    40     3    35    1
    41     4    36    1
    42     5    37    1
    43     6    38    1
    44     7    39    1
    45     8    40    1
    46    18    41    1
    47    18    42    1
    48    19    43    1
    49    19    44    1
    50    20    45    1
    51    20    46    1
    52    21    47    1
    53    21    48    1
    54    22    49    1
    55    22    50    1
    56    24    51    1
    57    24    52    1
    58    24    53    1
    59    25    54    1
    60    25    55    1
    61    28    56    1
    62    29    57    1
    63    30    58    1
