@<TRIPOS>MOLECULE
ChEBML300371
 45 47 0 0 0
SMALL
USER_CHARGES

@<TRIPOS>ATOM
      1 C         -10.3427   -5.1744    0.4638 C.ar    1  LIG1       -0.0387
      2 C         -11.6797   -5.5304    0.6621 C.ar    1  LIG1       -0.0416
      3 C         -12.0854   -3.5143    1.9536 C.ar    1  LIG1       -0.0343
      4 C          -9.9603   -2.0183    2.1778 C.ar    1  LIG1       -0.0262
      5 C         -10.7413   -3.1346    1.7670 C.ar    1  LIG1       -0.0007
      6 C          -9.9027   -3.9717    1.0279 C.ar    1  LIG1        0.0379
      7 C         -12.5393   -4.7147    1.3951 C.ar    1  LIG1        0.0413
      8 C          -8.6863   -2.1961    1.6896 C.ar    1  LIG1        0.0945
      9 C          -7.5059   -1.3082    1.8485 C.2     1  LIG1        0.2576
     10 C          -4.6306   -0.6120   -0.0626 C.2     1  LIG1        0.2319
     11 C          -1.9621    0.4890   -1.7122 C.3     1  LIG1       -0.0245
     12 C          -2.1509   -0.9561   -2.1515 C.3     1  LIG1       -0.0049
     13 C          -4.2350    0.6889   -2.5850 C.3     1  LIG1        0.0120
     14 C          -3.3427    1.0649   -1.4085 C.3     1  LIG1        0.0353
     15 C          -5.0993   -1.0019    1.3282 C.3     1  LIG1        0.0887
     16 C          -3.5431    1.3605    1.0302 C.3     1  LIG1        0.0377
     17 C          -4.6231    2.4042    1.2492 C.3     1  LIG1        0.0589
     18 N          -8.6615   -3.3769    0.9972 N.ar    1  LIG1       -0.3101
     19 N          -6.3285   -1.7373    1.2436 N.am    1  LIG1       -0.3013
     20 N          -3.8686    0.5589   -0.1429 N.am    1  LIG1       -0.2943
     21 O          -7.6153   -0.2762    2.5053 O.2     1  LIG1       -0.2704
     22 O          -4.9172   -1.3046   -1.0427 O.2     1  LIG1       -0.2756
     23 O          -4.6793    3.2694    0.1221 O.3     1  LIG1       -0.3947
     24 S          -3.6972   -0.9700   -3.0994 S.3     1  LIG1       -0.1599
     25 CL        -14.1816   -5.1869    1.6166 Cl      1  LIG1       -0.0843
     26 H          -9.6743   -5.8107   -0.1066 H       1  LIG1        0.0643
     27 H         -12.0392   -6.4625    0.2311 H       1  LIG1        0.0639
     28 H         -12.7545   -2.8774    2.5260 H       1  LIG1        0.0645
     29 H         -10.2984   -1.1766    2.7676 H       1  LIG1        0.0651
     30 H          -1.2903    0.5467   -0.8485 H       1  LIG1        0.0294
     31 H          -1.4946    1.0617   -2.5235 H       1  LIG1        0.0294
     32 H          -1.3140   -1.3087   -2.7601 H       1  LIG1        0.0381
     33 H          -2.2592   -1.6208   -1.2889 H       1  LIG1        0.0381
     34 H          -5.2998    0.6900   -2.3343 H       1  LIG1        0.0399
     35 H          -4.0711    1.3693   -3.4266 H       1  LIG1        0.0399
     36 H          -3.2942    2.1536   -1.3001 H       1  LIG1        0.0515
     37 H          -4.3607   -1.6471    1.8109 H       1  LIG1        0.0567
     38 H          -5.2900   -0.1096    1.9301 H       1  LIG1        0.0567
     39 H          -2.5670    1.8279    0.8661 H       1  LIG1        0.0493
     40 H          -3.4793    0.6914    1.8936 H       1  LIG1        0.0493
     41 H          -4.3855    3.0104    2.1289 H       1  LIG1        0.0580
     42 H          -5.6062    1.9431    1.3885 H       1  LIG1        0.0580
     43 H          -7.8510   -3.7599    0.5299 H       1  LIG1        0.1529
     44 H          -6.3072   -2.6392    0.7687 H       1  LIG1        0.1503
     45 H          -5.3787    3.9179    0.3023 H       1  LIG1        0.2101
@<TRIPOS>BOND
     1     1     2   ar
     2     1     6   ar
     3     2     7   ar
     4     3     5   ar
     5     3     7   ar
     6     4     5   ar
     7     4     8   ar
     8     5     6   ar
     9     6    18   ar
    10     7    25    1
    11     8     9    1
    12     8    18   ar
    13     9    19   am
    14     9    21    2
    15    10    15    1
    16    10    20   am
    17    10    22    2
    18    11    12    1
    19    11    14    1
    20    12    24    1
    21    13    14    1
    22    13    24    1
    23    14    20    1
    24    15    19    1
    25    16    17    1
    26    16    20    1
    27    17    23    1
    28     1    26    1
    29     2    27    1
    30     3    28    1
    31     4    29    1
    32    11    30    1
    33    11    31    1
    34    12    32    1
    35    12    33    1
    36    13    34    1
    37    13    35    1
    38    14    36    1
    39    15    37    1
    40    15    38    1
    41    16    39    1
    42    16    40    1
    43    17    41    1
    44    17    42    1
    45    18    43    1
    46    19    44    1
    47    23    45    1
