@<TRIPOS>MOLECULE
ChEBML732094
 30 31 0 0 0
SMALL
USER_CHARGES

@<TRIPOS>ATOM
      1 C          -2.1337    0.1944   -3.3368 C.ar    1  LIG1       -0.0543
      2 C          -8.4243   -3.3927    0.7324 C.ar    1  LIG1       -0.0379
      3 C          -9.5854   -4.1549    0.8613 C.ar    1  LIG1       -0.0242
      4 C          -2.2574   -0.8292   -2.3533 C.ar    1  LIG1       -0.0438
      5 C          -9.4126   -1.6569    2.0915 C.ar    1  LIG1       -0.0350
      6 C          -3.0899    1.1746   -3.1864 C.ar    1  LIG1       -0.0240
      7 C         -10.5738   -2.4191    2.2204 C.ar    1  LIG1       -0.0135
      8 C          -8.3379   -2.1437    1.3475 C.ar    1  LIG1        0.0303
      9 C         -10.6601   -3.6680    1.6053 C.ar    1  LIG1        0.1258
     10 C          -3.3033   -0.5922   -1.4885 C.ar    1  LIG1        0.0591
     11 C          -4.9313   -0.9151    0.4380 C.2     1  LIG1        0.0005
     12 C          -6.0301   -1.6713    0.5449 C.2     1  LIG1       -0.0033
     13 C          -3.7616   -1.4078   -0.3381 C.2     1  LIG1        0.1933
     14 C         -11.7216   -1.8960    3.0164 C.3     1  LIG1       -0.0368
     15 N          -7.1637   -1.3734    1.2165 N.pl3   1  LIG1       -0.3209
     16 O          -3.1615   -2.4354   -0.0431 O.2     1  LIG1       -0.2885
     17 F         -11.7710   -4.4083    1.7249 F       1  LIG1       -0.2066
     18 S          -4.1310    0.8592   -1.8639 S.2     1  LIG1       -0.0940
     19 H          -1.3824    0.2103   -4.1155 H       1  LIG1        0.0628
     20 H          -7.5926   -3.7820    0.1507 H       1  LIG1        0.0643
     21 H          -9.6525   -5.1279    0.3838 H       1  LIG1        0.0654
     22 H          -1.6086   -1.6936   -2.2879 H       1  LIG1        0.0636
     23 H          -9.3469   -0.6832    2.5719 H       1  LIG1        0.0646
     24 H          -3.2271    2.0603   -3.7906 H       1  LIG1        0.0701
     25 H          -4.8802    0.0513    0.9264 H       1  LIG1        0.0677
     26 H          -6.1024   -2.6433    0.0692 H       1  LIG1        0.0790
     27 H         -12.3996   -1.3197    2.3753 H       1  LIG1        0.0281
     28 H         -12.2905   -2.7128    3.4792 H       1  LIG1        0.0281
     29 H         -11.3776   -1.2466    3.8320 H       1  LIG1        0.0281
     30 H          -7.1703   -0.4773    1.6891 H       1  LIG1        0.1522
@<TRIPOS>BOND
     1     1     4   ar
     2     1     6   ar
     3     2     3   ar
     4     2     8   ar
     5     3     9   ar
     6     4    10   ar
     7     5     7   ar
     8     5     8   ar
     9     6    18   ar
    10     7     9   ar
    11     7    14    1
    12     8    15    1
    13     9    17    1
    14    10    13    1
    15    10    18   ar
    16    11    12    2
    17    11    13    1
    18    12    15    1
    19    13    16    2
    20     1    19    1
    21     2    20    1
    22     3    21    1
    23     4    22    1
    24     5    23    1
    25     6    24    1
    26    11    25    1
    27    12    26    1
    28    14    27    1
    29    14    28    1
    30    14    29    1
    31    15    30    1
