@<TRIPOS>MOLECULE
ChEBML868734
 61 64 0 0 0
SMALL
USER_CHARGES

@<TRIPOS>ATOM
      1 C          -1.1040   -6.2825   -1.3500 C.ar    1  LIG1       -0.0614
      2 C           0.1262   -6.5337   -0.7424 C.ar    1  LIG1       -0.0607
      3 C          -1.3894   -5.0110   -1.8477 C.ar    1  LIG1       -0.0482
      4 C           1.0709   -5.5134   -0.6323 C.ar    1  LIG1       -0.0427
      5 C          -2.1866    0.0954   -2.9746 C.ar    1  LIG1       -0.0042
      6 C          -3.1662    1.0974   -2.8400 C.ar    1  LIG1        0.0486
      7 C          -0.4446   -3.9907   -1.7377 C.ar    1  LIG1        0.0560
      8 C           0.7855   -4.2419   -1.1299 C.ar    1  LIG1        0.0531
      9 C          -2.5417   -0.8582   -2.0521 C.ar    1  LIG1        0.1136
     10 C          -0.7907   -2.6647   -2.2774 C.2     1  LIG1        0.2497
     11 C         -12.6381   -5.2102    0.2200 C.3     1  LIG1       -0.0530
     12 C         -13.4389   -4.9433    1.4956 C.3     1  LIG1       -0.0530
     13 C         -11.2559   -4.6079    0.4530 C.3     1  LIG1       -0.0504
     14 C         -12.4939   -4.2096    2.4417 C.3     1  LIG1       -0.0504
     15 C          -5.0681    0.0150    0.5292 C.3     1  LIG1        0.0073
     16 C          -5.4917   -1.9665   -0.9941 C.3     1  LIG1        0.0073
     17 C          -5.9313   -0.6399    1.5997 C.3     1  LIG1       -0.0325
     18 C          -6.3513   -2.6008    0.0914 C.3     1  LIG1       -0.0325
     19 C         -11.4925   -3.5340    1.5104 C.3     1  LIG1       -0.0412
     20 C          -4.4289   -1.0333   -0.3942 C.3     1  LIG1        0.0569
     21 C         -10.2188   -3.0962    2.2157 C.3     1  LIG1       -0.0455
     22 C          -9.1890   -2.5521    1.2263 C.3     1  LIG1       -0.0134
     23 C          -7.9335   -2.0839    1.9471 C.3     1  LIG1       -0.0343
     24 N          -4.0756    0.8073   -1.9058 N.ar    1  LIG1       -0.1880
     25 N          -3.6689   -0.3879   -1.4450 N.ar    1  LIG1       -0.2080
     26 N          -1.9587   -2.0544   -1.7321 N.am    1  LIG1       -0.2679
     27 N          -6.9704   -1.5161    0.9409 N.4     1  LIG1        0.2461
     28 O          -0.1180   -2.1487   -3.1675 O.2     1  LIG1       -0.2714
     29 CL          1.9825   -3.0069   -0.9736 Cl      1  LIG1       -0.0834
     30 H          -1.8396   -7.0770   -1.4353 H       1  LIG1        0.0623
     31 H           0.3483   -7.5237   -0.3551 H       1  LIG1        0.0623
     32 H          -2.3520   -4.8286   -2.3188 H       1  LIG1        0.0631
     33 H           2.0248   -5.7258   -0.1561 H       1  LIG1        0.0638
     34 H          -1.3419    0.0720   -3.6477 H       1  LIG1        0.0674
     35 H          -3.2551    2.0269   -3.3838 H       1  LIG1        0.0858
     36 H         -12.5723   -6.2799   -0.0037 H       1  LIG1        0.0267
     37 H         -13.1274   -4.7259   -0.6330 H       1  LIG1        0.0267
     38 H         -14.3078   -4.3162    1.2638 H       1  LIG1        0.0267
     39 H         -13.8127   -5.8693    1.9438 H       1  LIG1        0.0267
     40 H         -10.5743   -5.3816    0.8271 H       1  LIG1        0.0269
     41 H         -10.8260   -4.2000   -0.4670 H       1  LIG1        0.0269
     42 H         -13.0238   -3.4919    3.0756 H       1  LIG1        0.0269
     43 H         -11.9926   -4.9324    3.0973 H       1  LIG1        0.0269
     44 H          -5.6800    0.7104   -0.0609 H       1  LIG1        0.0340
     45 H          -4.2875    0.6192    1.0076 H       1  LIG1        0.0340
     46 H          -5.0083   -2.7543   -1.5846 H       1  LIG1        0.0340
     47 H          -6.1321   -1.4069   -1.6892 H       1  LIG1        0.0340
     48 H          -5.3399   -1.2709    2.2723 H       1  LIG1        0.0815
     49 H          -6.4626    0.1197    2.1821 H       1  LIG1        0.0815
     50 H          -7.1684   -3.1783   -0.3530 H       1  LIG1        0.0815
     51 H          -5.7625   -3.2466    0.7524 H       1  LIG1        0.0815
     52 H         -11.9635   -2.6597    1.0419 H       1  LIG1        0.0303
     53 H          -3.6984   -1.6240    0.1709 H       1  LIG1        0.0532
     54 H         -10.4646   -2.3274    2.9574 H       1  LIG1        0.0271
     55 H          -9.7977   -3.9494    2.7601 H       1  LIG1        0.0271
     56 H          -8.9312   -3.3314    0.4984 H       1  LIG1        0.0320
     57 H          -9.6264   -1.7189    0.6622 H       1  LIG1        0.0320
     58 H          -8.1466   -1.2880    2.6668 H       1  LIG1        0.0814
     59 H          -7.4182   -2.9074    2.4500 H       1  LIG1        0.0814
     60 H          -2.4351   -2.5954   -0.9850 H       1  LIG1        0.1573
     61 H          -7.5251   -0.9162    0.3151 H       1  LIG1        0.2003
@<TRIPOS>BOND
     1     1     2   ar
     2     1     3   ar
     3     2     4   ar
     4     3     7   ar
     5     4     8   ar
     6     5     6   ar
     7     5     9   ar
     8     6    24   ar
     9     7     8   ar
    10     7    10    1
    11     8    29    1
    12     9    25   ar
    13     9    26    1
    14    10    26   am
    15    10    28    2
    16    11    12    1
    17    11    13    1
    18    12    14    1
    19    13    19    1
    20    14    19    1
    21    15    17    1
    22    15    20    1
    23    16    18    1
    24    16    20    1
    25    17    27    1
    26    18    27    1
    27    19    21    1
    28    20    25    1
    29    21    22    1
    30    22    23    1
    31    23    27    1
    32    24    25   ar
    33     1    30    1
    34     2    31    1
    35     3    32    1
    36     4    33    1
    37     5    34    1
    38     6    35    1
    39    11    36    1
    40    11    37    1
    41    12    38    1
    42    12    39    1
    43    13    40    1
    44    13    41    1
    45    14    42    1
    46    14    43    1
    47    15    44    1
    48    15    45    1
    49    16    46    1
    50    16    47    1
    51    17    48    1
    52    17    49    1
    53    18    50    1
    54    18    51    1
    55    19    52    1
    56    20    53    1
    57    21    54    1
    58    21    55    1
    59    22    56    1
    60    22    57    1
    61    23    58    1
    62    23    59    1
    63    26    60    1
    64    27    61    1
