@<TRIPOS>MOLECULE
ChEBML716558
 51 54 0 0 0
SMALL
USER_CHARGES

@<TRIPOS>ATOM
      1 C          -2.0685    0.9138   -3.1764 C.ar    1  LIG1       -0.0418
      2 C         -11.6101   -5.4666    0.5111 C.ar    1  LIG1       -0.0482
      3 C         -12.1768   -3.5867    1.9189 C.ar    1  LIG1       -0.0482
      4 C         -10.2931   -5.0137    0.4363 C.ar    1  LIG1       -0.0402
      5 C         -10.8596   -3.1337    1.8441 C.ar    1  LIG1       -0.0402
      6 C          -1.5174   -0.1305   -2.4424 C.ar    1  LIG1       -0.0345
      7 C          -3.3563    1.3179   -2.8632 C.ar    1  LIG1        0.0292
      8 C          -7.2800   -2.1238    4.0713 C.ar    1  LIG1        0.1174
      9 C          -6.7872   -1.8203    1.4335 C.ar    1  LIG1        0.0157
     10 C         -12.5521   -4.7531    1.2523 C.ar    1  LIG1        0.0556
     11 C          -9.9178   -3.8472    1.1028 C.ar    1  LIG1        0.0314
     12 C          -2.2604   -0.7305   -1.4319 C.ar    1  LIG1        0.0943
     13 C          -6.0565   -1.1282    2.4004 C.ar    1  LIG1        0.0505
     14 C          -3.5396   -0.2527   -1.1965 C.ar    1  LIG1        0.1427
     15 C          -7.7813   -2.6575    1.9296 C.ar    1  LIG1        0.1285
     16 C          -6.5849   -1.6964   -0.0535 C.3     1  LIG1       -0.0067
     17 C          -4.9617   -0.1457    2.0587 C.3     1  LIG1        0.0059
     18 C          -5.1474   -1.9826   -0.4988 C.3     1  LIG1        0.0172
     19 C          -3.8476   -0.7452    1.1970 C.3     1  LIG1        0.0185
     20 C         -13.9606   -5.2364    1.3326 C.3     1  LIG1        0.4160
     21 N          -4.1087    0.7596   -1.8887 N.ar    1  LIG1       -0.2394
     22 N          -6.2950   -1.2746    3.7287 N.ar    1  LIG1       -0.2408
     23 N          -8.0524   -2.8354    3.2380 N.ar    1  LIG1       -0.2211
     24 N          -4.2808   -0.8347   -0.2035 N.pl3   1  LIG1       -0.3136
     25 N          -0.0209   -2.1649   -1.2541 N.3     1  LIG1       -0.3035
     26 N          -8.5912   -3.3919    1.0293 N.pl3   1  LIG1       -0.2993
     27 O          -1.3866   -1.6033    0.8590 O.2     1  LIG1       -0.4765
     28 O          -2.3096   -3.2574   -0.8022 O.2     1  LIG1       -0.4765
     29 F         -14.1852   -6.3878    0.6327 F       1  LIG1       -0.1661
     30 F         -14.3741   -5.5074    2.6058 F       1  LIG1       -0.1661
     31 F         -14.8556   -4.3298    0.8423 F       1  LIG1       -0.1661
     32 S          -1.5580   -2.0430   -0.5184 S.O2    1  LIG1       -0.1672
     33 H          -1.5075    1.3968   -3.9682 H       1  LIG1        0.0639
     34 H         -11.8940   -6.3757   -0.0121 H       1  LIG1        0.0629
     35 H         -12.9040   -3.0233    2.4973 H       1  LIG1        0.0629
     36 H          -9.5674   -5.5764   -0.1453 H       1  LIG1        0.0642
     37 H         -10.5784   -2.2232    2.3668 H       1  LIG1        0.0642
     38 H          -0.5093   -0.4680   -2.6672 H       1  LIG1        0.0644
     39 H          -3.8318    2.1283   -3.4059 H       1  LIG1        0.0840
     40 H          -7.4692   -2.2429    5.1308 H       1  LIG1        0.1063
     41 H          -7.2240   -2.3917   -0.6075 H       1  LIG1        0.0334
     42 H          -6.9068   -0.6934   -0.3613 H       1  LIG1        0.0334
     43 H          -5.4141    0.7347    1.5868 H       1  LIG1        0.0348
     44 H          -4.5087    0.2053    2.9950 H       1  LIG1        0.0348
     45 H          -4.7595   -2.8941   -0.0265 H       1  LIG1        0.0472
     46 H          -5.1327   -2.1635   -1.5812 H       1  LIG1        0.0472
     47 H          -2.9624   -0.0989    1.2497 H       1  LIG1        0.0473
     48 H          -3.5388   -1.7287    1.5724 H       1  LIG1        0.0473
     49 H           0.7965   -1.8503   -0.7171 H       1  LIG1        0.1601
     50 H           0.1639   -2.9791   -1.8525 H       1  LIG1        0.1601
     51 H          -8.1163   -3.6316    0.1668 H       1  LIG1        0.1543
@<TRIPOS>BOND
     1     1     6   ar
     2     1     7   ar
     3     2     4   ar
     4     2    10   ar
     5     3     5   ar
     6     3    10   ar
     7     4    11   ar
     8     5    11   ar
     9     6    12   ar
    10     7    21   ar
    11     8    22   ar
    12     8    23   ar
    13     9    13   ar
    14     9    15   ar
    15     9    16    1
    16    10    20    1
    17    11    26    1
    18    12    14   ar
    19    12    32    1
    20    13    17    1
    21    13    22   ar
    22    14    21   ar
    23    14    24    1
    24    15    23   ar
    25    15    26    1
    26    16    18    1
    27    17    19    1
    28    18    24    1
    29    19    24    1
    30    20    29    1
    31    20    30    1
    32    20    31    1
    33    25    32    1
    34    27    32    2
    35    28    32    2
    36     1    33    1
    37     2    34    1
    38     3    35    1
    39     4    36    1
    40     5    37    1
    41     6    38    1
    42     7    39    1
    43     8    40    1
    44    16    41    1
    45    16    42    1
    46    17    43    1
    47    17    44    1
    48    18    45    1
    49    18    46    1
    50    19    47    1
    51    19    48    1
    52    25    49    1
    53    25    50    1
    54    26    51    1
