@<TRIPOS>MOLECULE
ChEBML716447
 46 49 0 0 0
SMALL
USER_CHARGES

@<TRIPOS>ATOM
      1 C          -2.0758    0.9192   -3.1809 C.ar    1  LIG1       -0.0422
      2 C         -11.6086   -5.4658    0.5110 C.ar    1  LIG1       -0.0482
      3 C         -12.1757   -3.5842    1.9164 C.ar    1  LIG1       -0.0482
      4 C         -10.2913   -5.0132    0.4366 C.ar    1  LIG1       -0.0402
      5 C         -10.8584   -3.1316    1.8420 C.ar    1  LIG1       -0.0402
      6 C          -1.5192   -0.1239   -2.4494 C.ar    1  LIG1       -0.0384
      7 C          -3.3640    1.3190   -2.8636 C.ar    1  LIG1        0.0292
      8 C          -7.2788   -2.1212    4.0707 C.ar    1  LIG1        0.1174
      9 C          -6.7856   -1.8195    1.4327 C.ar    1  LIG1        0.0157
     10 C         -12.5508   -4.7512    1.2508 C.ar    1  LIG1        0.0556
     11 C          -9.9161   -3.8462    1.1021 C.ar    1  LIG1        0.0314
     12 C          -2.2574   -0.7271   -1.4371 C.ar    1  LIG1        0.0809
     13 C          -6.0551   -1.1267    2.3993 C.ar    1  LIG1        0.0505
     14 C          -3.5374   -0.2535   -1.1977 C.ar    1  LIG1        0.1387
     15 C          -7.7801   -2.6560    1.9292 C.ar    1  LIG1        0.1285
     16 C          -6.5828   -1.6968   -0.0544 C.3     1  LIG1       -0.0067
     17 C          -4.9606   -0.1442    2.0568 C.3     1  LIG1        0.0059
     18 C          -5.1450   -1.9833   -0.4991 C.3     1  LIG1        0.0171
     19 C          -3.8461   -0.7443    1.1961 C.3     1  LIG1        0.0185
     20 C         -13.9595   -5.2342    1.3306 C.3     1  LIG1        0.4160
     21 N          -4.1117    0.7574   -1.8873 N.ar    1  LIG1       -0.2398
     22 N          -6.2937   -1.2722    3.7277 N.ar    1  LIG1       -0.2408
     23 N          -8.0513   -2.8330    3.2378 N.ar    1  LIG1       -0.2211
     24 N          -4.2787   -0.8351   -0.2045 N.pl3   1  LIG1       -0.3139
     25 N          -8.5896   -3.3912    1.0290 N.pl3   1  LIG1       -0.2993
     26 F         -14.1839   -6.3863    0.6318 F       1  LIG1       -0.1661
     27 F         -14.3738   -5.5038    2.6040 F       1  LIG1       -0.1661
     28 F         -14.8540   -4.3279    0.8389 F       1  LIG1       -0.1661
     29 CL         -1.5525   -2.0178   -0.5405 Cl      1  LIG1       -0.0805
     30 H          -1.5191    1.4040   -3.9749 H       1  LIG1        0.0639
     31 H         -11.8923   -6.3753   -0.0115 H       1  LIG1        0.0629
     32 H         -12.9032   -3.0202    2.4938 H       1  LIG1        0.0629
     33 H          -9.5654   -5.5767   -0.1439 H       1  LIG1        0.0642
     34 H         -10.5773   -2.2206    2.3641 H       1  LIG1        0.0642
     35 H          -0.5100   -0.4547   -2.6805 H       1  LIG1        0.0640
     36 H          -3.8438    2.1277   -3.4049 H       1  LIG1        0.0840
     37 H          -7.4676   -2.2393    5.1305 H       1  LIG1        0.1063
     38 H          -7.2214   -2.3927   -0.6081 H       1  LIG1        0.0334
     39 H          -6.9042   -0.6942   -0.3636 H       1  LIG1        0.0334
     40 H          -5.4124    0.7360    1.5840 H       1  LIG1        0.0348
     41 H          -4.5079    0.2077    2.9929 H       1  LIG1        0.0348
     42 H          -4.7575   -2.8943   -0.0261 H       1  LIG1        0.0472
     43 H          -5.1300   -2.1650   -1.5814 H       1  LIG1        0.0472
     44 H          -2.9603   -0.0985    1.2488 H       1  LIG1        0.0473
     45 H          -3.5376   -1.7275    1.5727 H       1  LIG1        0.0473
     46 H          -8.1140   -3.6318    0.1672 H       1  LIG1        0.1543
@<TRIPOS>BOND
     1     1     6   ar
     2     1     7   ar
     3     2     4   ar
     4     2    10   ar
     5     3     5   ar
     6     3    10   ar
     7     4    11   ar
     8     5    11   ar
     9     6    12   ar
    10     7    21   ar
    11     8    22   ar
    12     8    23   ar
    13     9    13   ar
    14     9    15   ar
    15     9    16    1
    16    10    20    1
    17    11    25    1
    18    12    14   ar
    19    12    29    1
    20    13    17    1
    21    13    22   ar
    22    14    21   ar
    23    14    24    1
    24    15    23   ar
    25    15    25    1
    26    16    18    1
    27    17    19    1
    28    18    24    1
    29    19    24    1
    30    20    26    1
    31    20    27    1
    32    20    28    1
    33     1    30    1
    34     2    31    1
    35     3    32    1
    36     4    33    1
    37     5    34    1
    38     6    35    1
    39     7    36    1
    40     8    37    1
    41    16    38    1
    42    16    39    1
    43    17    40    1
    44    17    41    1
    45    18    42    1
    46    18    43    1
    47    19    44    1
    48    19    45    1
    49    25    46    1
