@<TRIPOS>MOLECULE
ChEBML204865
 62 66 0 0 0
SMALL
USER_CHARGES

@<TRIPOS>ATOM
      1 C         -12.8075   -4.2926    0.2930 C.ar    1  LIG1       -0.0615
      2 C         -11.8703   -4.8961   -0.5432 C.ar    1  LIG1       -0.0603
      3 C          -2.0470    1.1179   -3.5750 C.ar    1  LIG1       -0.0418
      4 C         -12.4001   -3.4690    1.3488 C.ar    1  LIG1       -0.0530
      5 C         -10.5000   -4.6968   -0.3524 C.ar    1  LIG1       -0.0402
      6 C          -1.5311   -0.0420   -3.0077 C.ar    1  LIG1       -0.0360
      7 C         -10.2723   -2.5007    2.5062 C.ar    1  LIG1       -0.0262
      8 C          -3.3826    1.4108   -3.3508 C.ar    1  LIG1        0.0292
      9 C         -11.0239   -3.2533    1.5608 C.ar    1  LIG1       -0.0022
     10 C         -10.1074   -3.8709    0.7070 C.ar    1  LIG1        0.0378
     11 C          -2.3548   -0.8619   -2.2445 C.ar    1  LIG1        0.0672
     12 C          -8.9390   -2.6731    2.2136 C.ar    1  LIG1        0.0947
     13 C          -3.6766   -0.4802   -2.0798 C.ar    1  LIG1        0.1416
     14 C          -7.8015   -2.1164    2.8856 C.2     1  LIG1        0.2598
     15 C          -4.5864   -3.1353   -3.1293 C.3     1  LIG1       -0.0327
     16 C          -5.9524   -3.0776   -2.5109 C.3     1  LIG1       -0.0327
     17 C          -4.7243   -1.5740    1.1160 C.3     1  LIG1       -0.0185
     18 C          -6.6984   -0.8708   -0.3028 C.3     1  LIG1       -0.0185
     19 C          -5.5219   -1.1797    2.3584 C.3     1  LIG1        0.0162
     20 C          -7.4543   -0.5138    0.9780 C.3     1  LIG1        0.0162
     21 C          -4.7473   -2.6880   -1.7061 C.3     1  LIG1        0.0246
     22 C          -5.1760   -0.7978   -0.1275 C.3     1  LIG1        0.0274
     23 C          -0.3025   -3.0910   -3.1972 C.3     1  LIG1       -0.0470
     24 C          -0.1100   -3.4049   -0.7051 C.3     1  LIG1       -0.0470
     25 C          -0.4718   -2.4454   -1.8294 C.3     1  LIG1        0.0142
     26 N          -4.2136    0.6389   -2.6153 N.ar    1  LIG1       -0.2394
     27 N          -8.8496   -3.5009    1.1268 N.ar    1  LIG1       -0.3101
     28 N          -6.9641   -1.3054    2.1076 N.am    1  LIG1       -0.2966
     29 N          -1.8345   -2.0364   -1.6693 N.pl3   1  LIG1       -0.3393
     30 N          -4.5126   -1.3000   -1.3140 N.pl3   1  LIG1       -0.3081
     31 O          -7.6013   -2.3553    4.0753 O.2     1  LIG1       -0.2702
     32 H         -13.8676   -4.4621    0.1242 H       1  LIG1        0.0623
     33 H         -12.2089   -5.5322   -1.3567 H       1  LIG1        0.0623
     34 H          -1.4235    1.7720   -4.1736 H       1  LIG1        0.0639
     35 H         -13.1415   -3.0042    1.9930 H       1  LIG1        0.0629
     36 H          -9.7705   -5.1670   -1.0032 H       1  LIG1        0.0642
     37 H          -0.4866   -0.2961   -3.1674 H       1  LIG1        0.0644
     38 H         -10.6692   -1.8987    3.3127 H       1  LIG1        0.0651
     39 H          -3.8341    2.3034   -3.7712 H       1  LIG1        0.0840
     40 H          -4.1538   -4.1122   -3.3055 H       1  LIG1        0.0286
     41 H          -4.3426   -2.3934   -3.8799 H       1  LIG1        0.0286
     42 H          -6.6234   -2.2963   -2.8456 H       1  LIG1        0.0286
     43 H          -6.4380   -4.0155   -2.2710 H       1  LIG1        0.0286
     44 H          -3.6553   -1.4154    1.3007 H       1  LIG1        0.0302
     45 H          -4.8659   -2.6466    0.9311 H       1  LIG1        0.0302
     46 H          -6.9656   -1.8960   -0.5909 H       1  LIG1        0.0302
     47 H          -7.0253   -0.2127   -1.1165 H       1  LIG1        0.0302
     48 H          -5.2044   -1.8007    3.1998 H       1  LIG1        0.0470
     49 H          -5.3279   -0.1387    2.6407 H       1  LIG1        0.0470
     50 H          -7.3141    0.5434    1.2317 H       1  LIG1        0.0470
     51 H          -8.5269   -0.6721    0.8281 H       1  LIG1        0.0470
     52 H          -4.4272   -3.3781   -0.9336 H       1  LIG1        0.0505
     53 H          -4.8854    0.2525   -0.0092 H       1  LIG1        0.0507
     54 H          -0.9254   -3.9871   -3.2851 H       1  LIG1        0.0249
     55 H          -0.5810   -2.4014   -4.0021 H       1  LIG1        0.0249
     56 H           0.7398   -3.3849   -3.3619 H       1  LIG1        0.0249
     57 H          -0.7297   -4.3072   -0.7503 H       1  LIG1        0.0249
     58 H          -0.2644   -2.9361    0.2723 H       1  LIG1        0.0249
     59 H           0.9371   -3.7214   -0.7702 H       1  LIG1        0.0249
     60 H           0.1594   -1.5525   -1.7643 H       1  LIG1        0.0497
     61 H          -7.9868   -3.8000    0.6934 H       1  LIG1        0.1529
     62 H          -2.4654   -2.5985   -1.1273 H       1  LIG1        0.1469
@<TRIPOS>BOND
     1     1     2   ar
     2     1     4   ar
     3     2     5   ar
     4     3     6   ar
     5     3     8   ar
     6     4     9   ar
     7     5    10   ar
     8     6    11   ar
     9     7     9   ar
    10     7    12   ar
    11     8    26   ar
    12     9    10   ar
    13    10    27   ar
    14    11    13   ar
    15    11    29    1
    16    12    14    1
    17    12    27   ar
    18    13    26   ar
    19    13    30    1
    20    14    28   am
    21    14    31    2
    22    15    16    1
    23    15    21    1
    24    16    21    1
    25    17    19    1
    26    17    22    1
    27    18    20    1
    28    18    22    1
    29    19    28    1
    30    20    28    1
    31    21    30    1
    32    22    30    1
    33    23    25    1
    34    24    25    1
    35    25    29    1
    36     1    32    1
    37     2    33    1
    38     3    34    1
    39     4    35    1
    40     5    36    1
    41     6    37    1
    42     7    38    1
    43     8    39    1
    44    15    40    1
    45    15    41    1
    46    16    42    1
    47    16    43    1
    48    17    44    1
    49    17    45    1
    50    18    46    1
    51    18    47    1
    52    19    48    1
    53    19    49    1
    54    20    50    1
    55    20    51    1
    56    21    52    1
    57    22    53    1
    58    23    54    1
    59    23    55    1
    60    23    56    1
    61    24    57    1
    62    24    58    1
    63    24    59    1
    64    25    60    1
    65    27    61    1
    66    29    62    1
