@<TRIPOS>MOLECULE
ChEBML379231
 33 36 0 0 0
SMALL
USER_CHARGES

@<TRIPOS>ATOM
      1 C         -10.3426   -5.1744    0.4638 C.ar    1  LIG1       -0.0376
      2 C          -3.3758    0.2350   -0.1282 C.ar    1  LIG1       -0.0280
      3 C         -11.6797   -5.5305    0.6621 C.ar    1  LIG1       -0.0302
      4 C          -2.6477    0.0002   -1.2983 C.ar    1  LIG1       -0.0294
      5 C         -12.0853   -3.5143    1.9535 C.ar    1  LIG1       -0.0229
      6 C          -4.3039   -1.5993   -2.0955 C.ar    1  LIG1       -0.0221
      7 C          -9.9603   -2.0183    2.1778 C.ar    1  LIG1       -0.0274
      8 C          -6.2749   -1.8679   -0.3949 C.ar    1  LIG1       -0.0171
      9 C         -10.7413   -3.1346    1.7670 C.ar    1  LIG1        0.0003
     10 C          -5.0526   -1.3785   -0.9264 C.ar    1  LIG1        0.0106
     11 C          -9.9027   -3.9717    1.0279 C.ar    1  LIG1        0.0379
     12 C          -4.5672   -0.4744    0.0129 C.ar    1  LIG1        0.0897
     13 C         -12.5394   -4.7147    1.3951 C.ar    1  LIG1        0.0720
     14 C          -3.1012   -0.8998   -2.2659 C.ar    1  LIG1        0.0721
     15 C          -8.6863   -2.1961    1.6896 C.ar    1  LIG1        0.0819
     16 C          -6.4511   -1.2385    0.8156 C.ar    1  LIG1        0.1320
     17 C          -7.5513   -1.3418    1.8418 C.2     1  LIG1        0.2300
     18 N          -8.6615   -3.3769    0.9972 N.ar    1  LIG1       -0.3111
     19 O          -7.4111   -0.6207    2.8570 O.2     1  LIG1       -0.2848
     20 O          -5.4205   -0.3914    1.0722 O.2     1  LIG1       -0.3056
     21 O         -13.8380   -5.0891    1.5712 O.3     1  LIG1       -0.3609
     22 O          -2.3628   -1.1036   -3.3939 O.3     1  LIG1       -0.3609
     23 H          -9.6742   -5.8099   -0.1073 H       1  LIG1        0.0643
     24 H          -3.0311    0.9315    0.6268 H       1  LIG1        0.0651
     25 H         -12.0471   -6.4603    0.2341 H       1  LIG1        0.0651
     26 H          -1.7113    0.5322   -1.4519 H       1  LIG1        0.0651
     27 H         -12.7622   -2.8834    2.5234 H       1  LIG1        0.0657
     28 H          -4.6492   -2.2968   -2.8531 H       1  LIG1        0.0657
     29 H         -10.2985   -1.1768    2.7680 H       1  LIG1        0.0651
     30 H          -6.9420   -2.5911   -0.8433 H       1  LIG1        0.0659
     31 H          -7.8511   -3.7597    0.5297 H       1  LIG1        0.1529
     32 H         -14.3089   -4.4252    2.0986 H       1  LIG1        0.2182
     33 H          -2.8013   -1.7507   -3.9677 H       1  LIG1        0.2182
@<TRIPOS>BOND
     1     1     3   ar
     2     1    11   ar
     3     2     4   ar
     4     2    12   ar
     5     3    13   ar
     6     4    14   ar
     7     5     9   ar
     8     5    13   ar
     9     6    10   ar
    10     6    14   ar
    11     7     9   ar
    12     7    15   ar
    13     8    10   ar
    14     8    16   ar
    15     9    11   ar
    16    10    12   ar
    17    11    18   ar
    18    12    20   ar
    19    13    21    1
    20    14    22    1
    21    15    17    1
    22    15    18   ar
    23    16    17    1
    24    16    20   ar
    25    17    19    2
    26     1    23    1
    27     2    24    1
    28     3    25    1
    29     4    26    1
    30     5    27    1
    31     6    28    1
    32     7    29    1
    33     8    30    1
    34    18    31    1
    35    21    32    1
    36    22    33    1
