@<TRIPOS>MOLECULE
ChEBML300412
 41 43 0 0 0
SMALL
USER_CHARGES

@<TRIPOS>ATOM
      1 C         -10.4297   -5.0908    0.4079 C.ar    1  LIG1       -0.0387
      2 C         -11.7242   -5.4871    0.7557 C.ar    1  LIG1       -0.0416
      3 C         -11.9750   -3.5752    2.2320 C.ar    1  LIG1       -0.0343
      4 C          -9.8554   -2.0557    2.2796 C.ar    1  LIG1       -0.0262
      5 C         -10.6722   -3.1561    1.8965 C.ar    1  LIG1       -0.0007
      6 C          -9.9312   -3.9220    0.9940 C.ar    1  LIG1        0.0379
      7 C         -12.4868   -4.7424    1.6535 C.ar    1  LIG1        0.0413
      8 C          -8.6564   -2.1728    1.6150 C.ar    1  LIG1        0.0945
      9 C          -7.4749   -1.2745    1.6795 C.2     1  LIG1        0.2576
     10 C          -4.5018   -1.0146   -0.4928 C.2     1  LIG1        0.2319
     11 C          -2.0886    0.8844   -2.5691 C.3     1  LIG1       -0.0327
     12 C          -3.1459    0.0210   -3.1925 C.3     1  LIG1       -0.0327
     13 C          -2.5193   -0.3824   -1.8900 C.3     1  LIG1        0.0256
     14 C          -5.1632   -0.8835    0.8678 C.3     1  LIG1        0.0887
     15 C          -2.6736    0.4227    0.4344 C.3     1  LIG1        0.0377
     16 C          -1.7720   -0.4758    1.2611 C.3     1  LIG1        0.0589
     17 N          -8.7118   -3.3014    0.8418 N.ar    1  LIG1       -0.3101
     18 N          -6.3847   -1.6360    0.8943 N.am    1  LIG1       -0.3013
     19 N          -3.2793   -0.3504   -0.6428 N.am    1  LIG1       -0.2952
     20 O          -7.5066   -0.2936    2.4179 O.2     1  LIG1       -0.2704
     21 O          -5.0314   -1.6739   -1.3913 O.2     1  LIG1       -0.2756
     22 O          -0.7712   -1.0401    0.4234 O.3     1  LIG1       -0.3947
     23 CL        -14.0794   -5.2623    2.0564 Cl      1  LIG1       -0.0843
     24 H          -9.8369   -5.6718   -0.2907 H       1  LIG1        0.0643
     25 H         -12.1282   -6.3937    0.3100 H       1  LIG1        0.0639
     26 H         -12.5684   -2.9937    2.9328 H       1  LIG1        0.0645
     27 H         -10.1205   -1.2646    2.9684 H       1  LIG1        0.0651
     28 H          -1.1108    0.9003   -3.0350 H       1  LIG1        0.0286
     29 H          -2.3985    1.8311   -2.1439 H       1  LIG1        0.0286
     30 H          -4.1645    0.3893   -3.1847 H       1  LIG1        0.0286
     31 H          -2.8794   -0.5438   -4.0773 H       1  LIG1        0.0286
     32 H          -1.8224   -1.2129   -1.9206 H       1  LIG1        0.0506
     33 H          -4.5107   -1.2849    1.6475 H       1  LIG1        0.0567
     34 H          -5.4151    0.1607    1.0700 H       1  LIG1        0.0567
     35 H          -3.4767    0.8486    1.0443 H       1  LIG1        0.0493
     36 H          -2.0941    1.2356   -0.0133 H       1  LIG1        0.0493
     37 H          -2.3540   -1.2964    1.6920 H       1  LIG1        0.0580
     38 H          -1.2834    0.0782    2.0693 H       1  LIG1        0.0580
     39 H          -7.9670   -3.6341    0.2447 H       1  LIG1        0.1529
     40 H          -6.4173   -2.5016    0.3567 H       1  LIG1        0.1503
     41 H          -0.2194   -1.6045    0.9883 H       1  LIG1        0.2101
@<TRIPOS>BOND
     1     1     2   ar
     2     1     6   ar
     3     2     7   ar
     4     3     5   ar
     5     3     7   ar
     6     4     5   ar
     7     4     8   ar
     8     5     6   ar
     9     6    17   ar
    10     7    23    1
    11     8     9    1
    12     8    17   ar
    13     9    18   am
    14     9    20    2
    15    10    14    1
    16    10    19   am
    17    10    21    2
    18    11    12    1
    19    11    13    1
    20    12    13    1
    21    13    19    1
    22    14    18    1
    23    15    16    1
    24    15    19    1
    25    16    22    1
    26     1    24    1
    27     2    25    1
    28     3    26    1
    29     4    27    1
    30    11    28    1
    31    11    29    1
    32    12    30    1
    33    12    31    1
    34    13    32    1
    35    14    33    1
    36    14    34    1
    37    15    35    1
    38    15    36    1
    39    16    37    1
    40    16    38    1
    41    17    39    1
    42    18    40    1
    43    22    41    1
