@<TRIPOS>MOLECULE
ChEBML1987
 35 38 0 0 0
SMALL
USER_CHARGES

@<TRIPOS>ATOM
      1 C          -3.4141   -1.4239   -2.8256 C.ar    1  LIG1       -0.0616
      2 C          -2.6947   -0.4861   -2.0986 C.ar    1  LIG1       -0.0611
      3 C          -4.6178   -1.9300   -2.3283 C.ar    1  LIG1       -0.0538
      4 C         -10.3022   -5.1668    0.4560 C.ar    1  LIG1       -0.0376
      5 C         -11.6375   -5.5330    0.6479 C.ar    1  LIG1       -0.0299
      6 C          -3.1604   -0.0345   -0.8623 C.ar    1  LIG1       -0.0476
      7 C         -12.0632   -3.5228    1.9421 C.ar    1  LIG1       -0.0226
      8 C          -9.9501   -2.0118    2.1785 C.ar    1  LIG1       -0.0275
      9 C          -6.3096   -1.8594   -0.3682 C.ar    1  LIG1       -0.0358
     10 C          -5.1170   -1.4923   -1.0776 C.ar    1  LIG1       -0.0104
     11 C         -10.7212   -3.1329    1.7619 C.ar    1  LIG1        0.0003
     12 C          -9.8734   -3.9622    1.0246 C.ar    1  LIG1        0.0379
     13 C         -12.5062   -4.7252    1.3790 C.ar    1  LIG1        0.0753
     14 C          -4.3744   -0.5469   -0.3637 C.ar    1  LIG1        0.0196
     15 C          -8.6728   -2.1793    1.6952 C.ar    1  LIG1        0.0803
     16 C          -6.4410   -1.2035    0.8327 C.ar    1  LIG1        0.0622
     17 C          -7.5447   -1.3171    1.8540 C.2     1  LIG1        0.2132
     18 C         -14.1957   -6.3436    0.9525 C.3     1  LIG1        0.0422
     19 N          -8.6364   -3.3584    1.0004 N.ar    1  LIG1       -0.3112
     20 O          -7.4140   -0.5973    2.8714 O.2     1  LIG1       -0.2865
     21 O         -13.8028   -5.1094    1.5488 O.3     1  LIG1       -0.3493
     22 S          -5.1409   -0.1411    1.1266 S.2     1  LIG1       -0.0852
     23 H          -3.0410   -1.7681   -3.7860 H       1  LIG1        0.0623
     24 H          -1.7596   -0.0985   -2.4934 H       1  LIG1        0.0623
     25 H          -5.1707   -2.6640   -2.9090 H       1  LIG1        0.0629
     26 H          -9.6268   -5.7961   -0.1138 H       1  LIG1        0.0643
     27 H         -11.9963   -6.4647    0.2164 H       1  LIG1        0.0651
     28 H          -2.5910    0.6999   -0.3000 H       1  LIG1        0.0635
     29 H         -12.7470   -2.8980    2.5102 H       1  LIG1        0.0657
     30 H         -10.2969   -1.1741    2.7691 H       1  LIG1        0.0651
     31 H          -7.0342   -2.5770   -0.7344 H       1  LIG1        0.0643
     32 H         -15.2514   -6.5312    1.1633 H       1  LIG1        0.0535
     33 H         -13.5832   -7.1547    1.3542 H       1  LIG1        0.0535
     34 H         -14.0482   -6.2790   -0.1282 H       1  LIG1        0.0535
     35 H          -7.8214   -3.7342    0.5354 H       1  LIG1        0.1529
@<TRIPOS>BOND
     1     1     2   ar
     2     1     3   ar
     3     2     6   ar
     4     3    10   ar
     5     4     5   ar
     6     4    12   ar
     7     5    13   ar
     8     6    14   ar
     9     7    11   ar
    10     7    13   ar
    11     8    11   ar
    12     8    15   ar
    13     9    10   ar
    14     9    16   ar
    15    10    14   ar
    16    11    12   ar
    17    12    19   ar
    18    13    21    1
    19    14    22   ar
    20    15    17    1
    21    15    19   ar
    22    16    17    1
    23    16    22   ar
    24    17    20    2
    25    18    21    1
    26     1    23    1
    27     2    24    1
    28     3    25    1
    29     4    26    1
    30     5    27    1
    31     6    28    1
    32     7    29    1
    33     8    30    1
    34     9    31    1
    35    18    32    1
    36    18    33    1
    37    18    34    1
    38    19    35    1
