@<TRIPOS>MOLECULE
ChEBML208500
 47 50 0 0 0
SMALL
USER_CHARGES

@<TRIPOS>ATOM
      1 C          -0.3713    1.0111   -2.8648 C.ar    1  LIG1       -0.0622
      2 C          -0.9757    1.7532   -1.8503 C.ar    1  LIG1       -0.0620
      3 C          -1.1511    0.2247   -3.7130 C.ar    1  LIG1       -0.0620
      4 C         -12.1645   -3.5093    1.7691 C.ar    1  LIG1       -0.0504
      5 C          -2.3600    1.7090   -1.6837 C.ar    1  LIG1       -0.0590
      6 C          -2.5353    0.1805   -3.5465 C.ar    1  LIG1       -0.0590
      7 C         -12.5283   -4.7848    1.3224 C.ar    1  LIG1       -0.0313
      8 C         -10.1224   -1.8984    1.9668 C.ar    1  LIG1       -0.0262
      9 C         -10.2520   -5.2413    0.6054 C.ar    1  LIG1       -0.0100
     10 C         -10.8262   -3.0895    1.6340 C.ar    1  LIG1       -0.0020
     11 C          -3.1398    0.9226   -2.5318 C.ar    1  LIG1       -0.0477
     12 C          -9.9027   -3.9635    1.0564 C.ar    1  LIG1        0.0404
     13 C         -11.5851   -5.6358    0.7499 C.ar    1  LIG1        0.0732
     14 C          -8.8096   -2.0692    1.5922 C.ar    1  LIG1        0.0947
     15 C          -7.7198   -1.1471    1.7237 C.2     1  LIG1        0.2598
     16 C          -6.5182   -0.6333   -1.6214 C.3     1  LIG1       -0.0341
     17 C          -4.8228    0.1765    0.0641 C.3     1  LIG1       -0.0341
     18 C          -6.9723   -1.6901   -0.6162 C.3     1  LIG1        0.0147
     19 C          -5.3100   -0.9043    1.0262 C.3     1  LIG1        0.0147
     20 C          -5.0487   -0.2418   -1.3977 C.3     1  LIG1       -0.0344
     21 C          -4.6323    0.8743   -2.3526 C.3     1  LIG1       -0.0249
     22 N          -8.6870   -3.3178    1.0438 N.ar    1  LIG1       -0.3100
     23 N          -6.7134   -1.2433    0.7535 N.am    1  LIG1       -0.2967
     24 O          -7.6992   -0.3329    2.6449 O.2     1  LIG1       -0.2702
     25 O         -11.9665   -6.8736    0.3229 O.3     1  LIG1       -0.3608
     26 H           0.7063    1.0467   -2.9952 H       1  LIG1        0.0622
     27 H          -0.3689    2.3665   -1.1905 H       1  LIG1        0.0623
     28 H          -0.6810   -0.3524   -4.5037 H       1  LIG1        0.0623
     29 H         -12.9103   -2.8554    2.2119 H       1  LIG1        0.0630
     30 H          -2.8223    2.2905   -0.8903 H       1  LIG1        0.0625
     31 H          -3.1348   -0.4351   -4.2119 H       1  LIG1        0.0625
     32 H         -13.5615   -5.1073    1.4277 H       1  LIG1        0.0650
     33 H         -10.5363   -1.0129    2.4305 H       1  LIG1        0.0651
     34 H          -9.5142   -5.9012    0.1602 H       1  LIG1        0.0670
     35 H          -6.6560   -1.0142   -2.6401 H       1  LIG1        0.0285
     36 H          -7.1545    0.2556   -1.5202 H       1  LIG1        0.0285
     37 H          -5.3611    1.1112    0.2681 H       1  LIG1        0.0285
     38 H          -3.7584    0.3710    0.2399 H       1  LIG1        0.0285
     39 H          -8.0353   -1.9063   -0.7618 H       1  LIG1        0.0469
     40 H          -6.4225   -2.6266   -0.7671 H       1  LIG1        0.0469
     41 H          -4.7227   -1.8219    0.9014 H       1  LIG1        0.0469
     42 H          -5.1673   -0.5662    2.0554 H       1  LIG1        0.0469
     43 H          -4.4220   -1.1188   -1.6074 H       1  LIG1        0.0307
     44 H          -4.9939    1.8345   -1.9708 H       1  LIG1        0.0319
     45 H          -5.1201    0.7260   -3.3216 H       1  LIG1        0.0319
     46 H          -7.8291   -3.7122    0.6829 H       1  LIG1        0.1529
     47 H         -12.9129   -7.0062    0.4868 H       1  LIG1        0.2182
@<TRIPOS>BOND
     1     1     2   ar
     2     1     3   ar
     3     2     5   ar
     4     3     6   ar
     5     4     7   ar
     6     4    10   ar
     7     5    11   ar
     8     6    11   ar
     9     7    13   ar
    10     8    10   ar
    11     8    14   ar
    12     9    12   ar
    13     9    13   ar
    14    10    12   ar
    15    11    21    1
    16    12    22   ar
    17    13    25    1
    18    14    15    1
    19    14    22   ar
    20    15    23   am
    21    15    24    2
    22    16    18    1
    23    16    20    1
    24    17    19    1
    25    17    20    1
    26    18    23    1
    27    19    23    1
    28    20    21    1
    29     1    26    1
    30     2    27    1
    31     3    28    1
    32     4    29    1
    33     5    30    1
    34     6    31    1
    35     7    32    1
    36     8    33    1
    37     9    34    1
    38    16    35    1
    39    16    36    1
    40    17    37    1
    41    17    38    1
    42    18    39    1
    43    18    40    1
    44    19    41    1
    45    19    42    1
    46    20    43    1
    47    21    44    1
    48    21    45    1
    49    22    46    1
    50    25    47    1
