@<TRIPOS>MOLECULE
ChEBML348343
 36 39 0 0 0
SMALL
USER_CHARGES

@<TRIPOS>ATOM
      1 C         -11.4603   -5.6368    0.7273 C.ar    1  LIG1       -0.0574
      2 C         -10.1293   -5.2337    0.5876 C.ar    1  LIG1       -0.0400
      3 C          -4.3259    0.6155   -1.6123 C.ar    1  LIG1       -0.0376
      4 C          -3.2092    0.0682   -2.2506 C.ar    1  LIG1       -0.0299
      5 C         -12.4127   -4.7889    1.2896 C.ar    1  LIG1       -0.0256
      6 C          -3.5024   -2.0402   -1.0820 C.ar    1  LIG1       -0.0226
      7 C          -5.5538   -2.0211    0.5292 C.ar    1  LIG1       -0.0275
      8 C         -10.0306   -1.8817    1.9292 C.ar    1  LIG1       -0.0246
      9 C          -4.6313   -1.5101   -0.4263 C.ar    1  LIG1        0.0003
     10 C         -10.7243   -3.0797    1.5999 C.ar    1  LIG1        0.0335
     11 C          -5.0162   -0.1971   -0.7060 C.ar    1  LIG1        0.0379
     12 C          -9.7915   -3.9507    1.0328 C.ar    1  LIG1        0.0407
     13 C          -2.8021   -1.2389   -1.9911 C.ar    1  LIG1        0.0753
     14 C         -12.0602   -3.5081    1.7304 C.ar    1  LIG1        0.1319
     15 C          -6.4637   -1.0269    0.8061 C.ar    1  LIG1        0.0811
     16 C          -8.7147   -2.0455    1.5627 C.ar    1  LIG1        0.0812
     17 C          -7.5756   -1.0672    1.7023 C.2     1  LIG1        0.2206
     18 C          -1.3430   -3.0877   -2.3213 C.3     1  LIG1        0.0422
     19 N          -6.1314    0.0693    0.0561 N.ar    1  LIG1       -0.3112
     20 N          -8.5803   -3.2964    1.0227 N.ar    1  LIG1       -0.3111
     21 O          -7.6607   -0.2750    2.6696 O.2     1  LIG1       -0.2856
     22 O          -1.7090   -1.7444   -2.6293 O.3     1  LIG1       -0.3493
     23 F         -12.9900   -2.7074    2.2685 F       1  LIG1       -0.2062
     24 H         -11.7555   -6.6277    0.3916 H       1  LIG1        0.0624
     25 H          -9.3883   -5.8946    0.1507 H       1  LIG1        0.0643
     26 H          -4.6424    1.6331   -1.8153 H       1  LIG1        0.0643
     27 H          -2.6548    0.6788   -2.9597 H       1  LIG1        0.0651
     28 H         -13.4417   -5.1239    1.3883 H       1  LIG1        0.0653
     29 H          -3.1790   -3.0588   -0.8856 H       1  LIG1        0.0657
     30 H          -5.5485   -3.0114    0.9651 H       1  LIG1        0.0651
     31 H         -10.4533   -0.9964    2.3855 H       1  LIG1        0.0652
     32 H          -0.4569   -3.3658   -2.8970 H       1  LIG1        0.0535
     33 H          -2.1726   -3.7568   -2.5629 H       1  LIG1        0.0535
     34 H          -1.1187   -3.1592   -1.2544 H       1  LIG1        0.0535
     35 H          -6.6302    0.9484    0.0587 H       1  LIG1        0.1529
     36 H          -7.7180   -3.6871    0.6681 H       1  LIG1        0.1529
@<TRIPOS>BOND
     1     1     2   ar
     2     1     5   ar
     3     2    12   ar
     4     3     4   ar
     5     3    11   ar
     6     4    13   ar
     7     5    14   ar
     8     6     9   ar
     9     6    13   ar
    10     7     9   ar
    11     7    15   ar
    12     8    10   ar
    13     8    16   ar
    14     9    11   ar
    15    10    12   ar
    16    10    14   ar
    17    11    19   ar
    18    12    20   ar
    19    13    22    1
    20    14    23    1
    21    15    17    1
    22    15    19   ar
    23    16    17    1
    24    16    20   ar
    25    17    21    2
    26    18    22    1
    27     1    24    1
    28     2    25    1
    29     3    26    1
    30     4    27    1
    31     5    28    1
    32     6    29    1
    33     7    30    1
    34     8    31    1
    35    18    32    1
    36    18    33    1
    37    18    34    1
    38    19    35    1
    39    20    36    1
