@<TRIPOS>MOLECULE
ChEBML919888
 55 60 0 0 0
SMALL
USER_CHARGES

@<TRIPOS>ATOM
      1 C         -11.9759   -3.7644    1.9733 C.ar    1  LIG1       -0.0482
      2 C          -2.8103    1.0799   -2.1698 C.ar    1  LIG1       -0.0510
      3 C          -2.6913    1.4388   -3.5145 C.ar    1  LIG1       -0.0285
      4 C         -12.3212   -5.0050    1.4255 C.ar    1  LIG1       -0.0310
      5 C          -2.0541   -1.1815   -2.6619 C.ar    1  LIG1       -0.0205
      6 C         -10.1062   -5.2538    0.4595 C.ar    1  LIG1       -0.0097
      7 C          -9.5075   -0.0672    3.0692 C.ar    1  LIG1        0.1180
      8 C         -10.6777   -3.2567    1.7644 C.ar    1  LIG1        0.0238
      9 C          -2.4935   -0.2227   -1.7459 C.ar    1  LIG1       -0.0015
     10 C          -9.9984   -2.0698    2.1584 C.ar    1  LIG1        0.0988
     11 C          -9.7737   -4.0119    1.0130 C.ar    1  LIG1        0.0426
     12 C          -8.7080   -2.1258    1.6442 C.ar    1  LIG1        0.0981
     13 C          -2.2553    0.4735   -4.3987 C.ar    1  LIG1        0.1084
     14 C          -1.9451   -0.8015   -3.9838 C.ar    1  LIG1        0.1089
     15 C         -11.3991   -5.7365    0.6803 C.ar    1  LIG1        0.0765
     16 C          -7.8183   -1.0915    1.8765 C.ar    1  LIG1        0.1460
     17 C          -5.5310   -0.4230    2.1856 C.3     1  LIG1        0.0524
     18 C          -6.4304   -0.9393   -0.0771 C.3     1  LIG1        0.0524
     19 C          -4.1234   -0.7334    1.6951 C.3     1  LIG1       -0.0177
     20 C          -5.0193   -1.2435   -0.5643 C.3     1  LIG1       -0.0177
     21 C          -1.6234   -0.6755   -6.1199 C.3     1  LIG1        0.1586
     22 C         -13.0925   -7.3851    0.4144 C.3     1  LIG1        0.0422
     23 C          -2.6291   -0.5848   -0.2962 C.3     1  LIG1       -0.0081
     24 N         -10.4430   -1.0224    2.8976 N.ar    1  LIG1       -0.2341
     25 N          -8.2373   -0.0378    2.6096 N.ar    1  LIG1       -0.2194
     26 N          -8.5922   -3.3048    0.9563 N.ar    1  LIG1       -0.3096
     27 N          -6.5098   -1.1305    1.3654 N.pl3   1  LIG1       -0.3037
     28 N          -4.0303   -0.4226    0.2226 N.4     1  LIG1        0.2516
     29 O          -2.0787    0.6386   -5.7379 O.3     1  LIG1       -0.3159
     30 O          -1.5358   -1.5943   -5.0114 O.3     1  LIG1       -0.3159
     31 O         -11.7619   -6.9424    0.1576 O.3     1  LIG1       -0.3492
     32 H         -12.7054   -3.2047    2.5517 H       1  LIG1        0.0631
     33 H          -3.1517    1.8199   -1.4500 H       1  LIG1        0.0628
     34 H          -2.9345    2.4421   -3.8454 H       1  LIG1        0.0651
     35 H         -13.3231   -5.3953    1.5877 H       1  LIG1        0.0650
     36 H          -1.8064   -2.1898   -2.3479 H       1  LIG1        0.0656
     37 H          -9.3850   -5.8213   -0.1201 H       1  LIG1        0.0670
     38 H          -9.8147    0.7929    3.6542 H       1  LIG1        0.1063
     39 H          -5.6115   -0.7292    3.2360 H       1  LIG1        0.0524
     40 H          -5.7147    0.6584    2.1415 H       1  LIG1        0.0524
     41 H          -6.7012    0.0928   -0.3361 H       1  LIG1        0.0524
     42 H          -7.1312   -1.6046   -0.5966 H       1  LIG1        0.0524
     43 H          -3.3863   -0.1117    2.2138 H       1  LIG1        0.0831
     44 H          -3.8699   -1.7916    1.8268 H       1  LIG1        0.0831
     45 H          -4.7592   -2.2989   -0.4230 H       1  LIG1        0.0831
     46 H          -4.9083   -0.9761   -1.6202 H       1  LIG1        0.0831
     47 H          -2.3181   -1.0859   -6.8617 H       1  LIG1        0.0892
     48 H          -0.6323   -0.5838   -6.5788 H       1  LIG1        0.0892
     49 H         -13.2512   -8.3577   -0.0574 H       1  LIG1        0.0535
     50 H         -13.8031   -6.6555    0.0179 H       1  LIG1        0.0535
     51 H         -13.2338   -7.4788    1.4938 H       1  LIG1        0.0535
     52 H          -2.3476   -1.6287   -0.1208 H       1  LIG1        0.0869
     53 H          -1.9869    0.0438    0.3301 H       1  LIG1        0.0869
     54 H          -7.7593   -3.6146    0.4744 H       1  LIG1        0.1530
     55 H          -4.2777    0.5686    0.0967 H       1  LIG1        0.2008
@<TRIPOS>BOND
     1     1     4   ar
     2     1     8   ar
     3     2     3   ar
     4     2     9   ar
     5     3    13   ar
     6     4    15   ar
     7     5     9   ar
     8     5    14   ar
     9     6    11   ar
    10     6    15   ar
    11     7    24   ar
    12     7    25   ar
    13     8    10   ar
    14     8    11   ar
    15     9    23    1
    16    10    12   ar
    17    10    24   ar
    18    11    26   ar
    19    12    16   ar
    20    12    26   ar
    21    13    14   ar
    22    13    29    1
    23    14    30    1
    24    15    31    1
    25    16    25   ar
    26    16    27    1
    27    17    19    1
    28    17    27    1
    29    18    20    1
    30    18    27    1
    31    19    28    1
    32    20    28    1
    33    21    29    1
    34    21    30    1
    35    22    31    1
    36    23    28    1
    37     1    32    1
    38     2    33    1
    39     3    34    1
    40     4    35    1
    41     5    36    1
    42     6    37    1
    43     7    38    1
    44    17    39    1
    45    17    40    1
    46    18    41    1
    47    18    42    1
    48    19    43    1
    49    19    44    1
    50    20    45    1
    51    20    46    1
    52    21    47    1
    53    21    48    1
    54    22    49    1
    55    22    50    1
    56    22    51    1
    57    23    52    1
    58    23    53    1
    59    26    54    1
    60    28    55    1
