@<TRIPOS>MOLECULE
ChEBML204864
 62 65 0 0 0
SMALL
USER_CHARGES

@<TRIPOS>ATOM
      1 C          -2.2886    0.9836   -3.4833 C.ar    1  LIG1       -0.0418
      2 C         -12.6703   -3.5768    2.4712 C.ar    1  LIG1       -0.0527
      3 C         -13.8708   -3.6977    1.7620 C.ar    1  LIG1       -0.0560
      4 C          -1.7914   -0.2476   -3.0706 C.ar    1  LIG1       -0.0360
      5 C         -10.1012   -3.9760    2.2596 C.ar    1  LIG1       -0.0262
      6 C         -12.6994   -4.5797   -0.1756 C.ar    1  LIG1       -0.0347
      7 C          -3.4333    1.4608   -2.8655 C.ar    1  LIG1        0.0292
      8 C         -11.4645   -3.9618    1.8520 C.ar    1  LIG1       -0.0022
      9 C         -13.8828   -4.1917    0.4591 C.ar    1  LIG1       -0.0207
     10 C         -11.5068   -4.4534    0.5456 C.ar    1  LIG1        0.0382
     11 C          -2.4449   -0.9540   -2.0670 C.ar    1  LIG1        0.0672
     12 C          -9.3561   -4.4669    1.2124 C.ar    1  LIG1        0.0947
     13 C          -3.5825   -0.3899   -1.5125 C.ar    1  LIG1        0.1411
     14 C          -7.9381   -4.6682    1.1466 C.2     1  LIG1        0.2598
     15 C          -6.6269   -1.6000   -0.1804 C.3     1  LIG1       -0.0185
     16 C          -4.9034   -3.4456   -0.3463 C.3     1  LIG1       -0.0185
     17 C          -7.7201   -2.6538   -0.3521 C.3     1  LIG1        0.0162
     18 C          -6.0423   -4.4560   -0.4930 C.3     1  LIG1        0.0162
     19 C          -5.3005   -2.0391   -0.8134 C.3     1  LIG1        0.0268
     20 C          -0.7944   -4.2950   -1.9403 C.3     1  LIG1       -0.0470
     21 C           0.4589   -2.1360   -1.6024 C.3     1  LIG1       -0.0470
     22 C          -3.8979   -0.8796    0.9003 C.3     1  LIG1        0.0018
     23 C         -15.1791   -4.3093   -0.2727 C.3     1  LIG1        0.0683
     24 C          -0.7696   -2.7974   -2.2099 C.3     1  LIG1        0.0142
     25 N          -4.0954    0.8035   -1.8872 N.ar    1  LIG1       -0.2394
     26 N         -10.2127   -4.7518    0.1830 N.ar    1  LIG1       -0.3101
     27 N          -7.2624   -3.9585    0.1448 N.am    1  LIG1       -0.2966
     28 N          -1.9433   -2.2003   -1.6478 N.pl3   1  LIG1       -0.3393
     29 N          -4.2467   -1.0942   -0.5025 N.pl3   1  LIG1       -0.3142
     30 O          -7.3783   -5.4253    1.9379 O.2     1  LIG1       -0.2702
     31 O         -15.9032   -5.4250    0.2293 O.3     1  LIG1       -0.3916
     32 H          -1.7957    1.5518   -4.2638 H       1  LIG1        0.0639
     33 H         -12.6753   -3.1903    3.4864 H       1  LIG1        0.0630
     34 H         -14.7994   -3.3995    2.2432 H       1  LIG1        0.0626
     35 H          -0.8948   -0.6458   -3.5383 H       1  LIG1        0.0644
     36 H          -9.7116   -3.6597    3.2182 H       1  LIG1        0.0651
     37 H         -12.7013   -4.9653   -1.1903 H       1  LIG1        0.0646
     38 H          -3.8621    2.4159   -3.1508 H       1  LIG1        0.0840
     39 H          -6.9624   -0.6495   -0.6119 H       1  LIG1        0.0302
     40 H          -6.4651   -1.4302    0.8919 H       1  LIG1        0.0302
     41 H          -4.6190   -3.3920    0.7127 H       1  LIG1        0.0302
     42 H          -4.0248   -3.8016   -0.8973 H       1  LIG1        0.0302
     43 H          -8.6232   -2.3205    0.1655 H       1  LIG1        0.0470
     44 H          -7.9872   -2.7803   -1.4074 H       1  LIG1        0.0470
     45 H          -6.2724   -4.6335   -1.5498 H       1  LIG1        0.0470
     46 H          -5.7404   -5.4152   -0.0607 H       1  LIG1        0.0470
     47 H          -5.4196   -2.0508   -1.9029 H       1  LIG1        0.0506
     48 H          -0.7811   -4.4978   -0.8645 H       1  LIG1        0.0249
     49 H          -1.6897   -4.7631   -2.3649 H       1  LIG1        0.0249
     50 H           0.0768   -4.7850   -2.3886 H       1  LIG1        0.0249
     51 H           0.4939   -2.3019   -0.5201 H       1  LIG1        0.0249
     52 H           0.4477   -1.0556   -1.7797 H       1  LIG1        0.0249
     53 H           1.3837   -2.5420   -2.0277 H       1  LIG1        0.0249
     54 H          -4.5167   -1.5117    1.5423 H       1  LIG1        0.0432
     55 H          -4.0605    0.1664    1.1743 H       1  LIG1        0.0432
     56 H          -2.8466   -1.1271    1.0704 H       1  LIG1        0.0432
     57 H         -15.7915   -3.4066   -0.1472 H       1  LIG1        0.0615
     58 H         -15.0138   -4.4493   -1.3490 H       1  LIG1        0.0615
     59 H          -0.7835   -2.6186   -3.2905 H       1  LIG1        0.0497
     60 H          -9.9384   -5.1272   -0.7146 H       1  LIG1        0.1529
     61 H          -2.4477   -2.6754   -0.9214 H       1  LIG1        0.1469
     62 H         -16.7348   -5.4662   -0.2700 H       1  LIG1        0.2105
@<TRIPOS>BOND
     1     1     4   ar
     2     1     7   ar
     3     2     3   ar
     4     2     8   ar
     5     3     9   ar
     6     4    11   ar
     7     5     8   ar
     8     5    12   ar
     9     6     9   ar
    10     6    10   ar
    11     7    25   ar
    12     8    10   ar
    13     9    23    1
    14    10    26   ar
    15    11    13   ar
    16    11    28    1
    17    12    14    1
    18    12    26   ar
    19    13    25   ar
    20    13    29    1
    21    14    27   am
    22    14    30    2
    23    15    17    1
    24    15    19    1
    25    16    18    1
    26    16    19    1
    27    17    27    1
    28    18    27    1
    29    19    29    1
    30    20    24    1
    31    21    24    1
    32    22    29    1
    33    23    31    1
    34    24    28    1
    35     1    32    1
    36     2    33    1
    37     3    34    1
    38     4    35    1
    39     5    36    1
    40     6    37    1
    41     7    38    1
    42    15    39    1
    43    15    40    1
    44    16    41    1
    45    16    42    1
    46    17    43    1
    47    17    44    1
    48    18    45    1
    49    18    46    1
    50    19    47    1
    51    20    48    1
    52    20    49    1
    53    20    50    1
    54    21    51    1
    55    21    52    1
    56    21    53    1
    57    22    54    1
    58    22    55    1
    59    22    56    1
    60    23    57    1
    61    23    58    1
    62    24    59    1
    63    26    60    1
    64    28    61    1
    65    31    62    1
