@<TRIPOS>MOLECULE
ChEBML204712
 81 85 0 0 0
SMALL
USER_CHARGES

@<TRIPOS>ATOM
      1 C          -2.0337   -3.1090   -4.1301 C.ar    1  LIG1       -0.0418
      2 C         -10.3497   -5.2168    0.5760 C.ar    1  LIG1       -0.0383
      3 C          -1.7139   -1.7772   -4.3571 C.ar    1  LIG1       -0.0360
      4 C         -11.6720   -5.5563    0.7462 C.ar    1  LIG1       -0.0377
      5 C         -12.0858   -3.5054    1.9372 C.ar    1  LIG1       -0.0304
      6 C          -9.9808   -2.0202    2.1642 C.ar    1  LIG1       -0.0261
      7 C          -2.8839   -3.4338   -3.0927 C.ar    1  LIG1        0.0292
      8 C         -10.7412   -3.1477    1.7702 C.ar    1  LIG1       -0.0003
      9 C          -9.8683   -4.0129    1.0830 C.ar    1  LIG1        0.0379
     10 C         -12.5423   -4.7035    1.4262 C.ar    1  LIG1        0.0453
     11 C          -2.2665   -0.8131   -3.5246 C.ar    1  LIG1        0.0670
     12 C          -8.7071   -2.2068    1.7291 C.ar    1  LIG1        0.0947
     13 C          -3.1152   -1.2174   -2.4910 C.ar    1  LIG1        0.1413
     14 C          -7.5922   -1.2690    1.9285 C.2     1  LIG1        0.2598
     15 C          -4.5308   -0.0694    0.6431 C.3     1  LIG1       -0.0185
     16 C          -5.6897   -1.5157   -1.0350 C.3     1  LIG1       -0.0185
     17 C          -5.1844   -0.8498    1.7880 C.3     1  LIG1        0.0162
     18 C          -6.3564   -2.3125    0.0909 C.3     1  LIG1        0.0162
     19 C         -15.7365   -3.4822   -0.8966 C.3     1  LIG1        0.0657
     20 C         -13.7540   -4.6110   -1.9751 C.3     1  LIG1        0.0657
     21 C         -16.3908   -3.4356   -2.2813 C.3     1  LIG1       -0.0170
     22 C         -14.5052   -4.5142   -3.3119 C.3     1  LIG1       -0.0170
     23 C          -4.3309   -1.0007   -0.5548 C.3     1  LIG1        0.0271
     24 C          -0.9289    2.4764   -4.7874 C.3     1  LIG1       -0.0497
     25 C          -5.3649    1.5046   -1.5436 C.3     1  LIG1       -0.0494
     26 C         -15.9811   -3.1580   -4.6270 C.3     1  LIG1       -0.0453
     27 C          -1.0816    0.9542   -4.8014 C.3     1  LIG1        0.0056
     28 C          -4.7389    0.4043   -2.4029 C.3     1  LIG1        0.0104
     29 N          -3.3963   -2.4978   -2.3149 N.ar    1  LIG1       -0.2394
     30 N          -8.6279   -3.4150    1.0647 N.ar    1  LIG1       -0.3101
     31 N          -6.4210   -1.4695    1.2925 N.am    1  LIG1       -0.2966
     32 N         -14.7426   -4.5667   -0.8866 N.3     1  LIG1       -0.2549
     33 N          -1.9731    0.5427   -3.7141 N.pl3   1  LIG1       -0.3419
     34 N         -13.8842   -5.0649    1.5911 N.pl3   1  LIG1       -0.2474
     35 N          -3.6742   -0.2642   -1.6430 N.pl3   1  LIG1       -0.3114
     36 N         -15.3498   -3.3131   -3.3097 N.4     1  LIG1        0.2462
     37 O          -7.7271   -0.3121    2.6674 O.2     1  LIG1       -0.2702
     38 O         -13.9448   -6.7781   -0.1700 O.2     1  LIG1       -0.4642
     39 O         -16.0781   -5.8031    0.7651 O.2     1  LIG1       -0.4642
     40 S         -14.7326   -5.7015    0.3193 S.O2    1  LIG1       -0.1184
     41 H          -1.6212   -3.8835   -4.7595 H       1  LIG1        0.0639
     42 H          -9.6849   -5.8845    0.0484 H       1  LIG1        0.0643
     43 H          -1.0511   -1.4976   -5.1628 H       1  LIG1        0.0644
     44 H         -12.0397   -6.4915    0.3503 H       1  LIG1        0.0643
     45 H         -12.7613   -2.8473    2.4634 H       1  LIG1        0.0650
     46 H         -10.3475   -1.1649    2.7123 H       1  LIG1        0.0651
     47 H          -3.1343   -4.4692   -2.9145 H       1  LIG1        0.0840
     48 H          -3.5649    0.3154    0.9700 H       1  LIG1        0.0302
     49 H          -5.1751    0.7611    0.3547 H       1  LIG1        0.0302
     50 H          -6.3231   -0.6715   -1.3077 H       1  LIG1        0.0302
     51 H          -5.5485   -2.1603   -1.9026 H       1  LIG1        0.0302
     52 H          -4.5023   -1.6245    2.1383 H       1  LIG1        0.0470
     53 H          -5.4192   -0.1694    2.6066 H       1  LIG1        0.0470
     54 H          -5.7698   -3.2064    0.3027 H       1  LIG1        0.0470
     55 H          -7.3645   -2.5971   -0.2104 H       1  LIG1        0.0470
     56 H         -16.4961   -3.6746   -0.1389 H       1  LIG1        0.0538
     57 H         -15.2436   -2.5317   -0.6923 H       1  LIG1        0.0538
     58 H         -13.0643   -3.7726   -1.8778 H       1  LIG1        0.0538
     59 H         -13.2023   -5.5500   -1.9309 H       1  LIG1        0.0538
     60 H         -16.9584   -4.3515   -2.4462 H       1  LIG1        0.0831
     61 H         -17.0606   -2.5776   -2.3382 H       1  LIG1        0.0831
     62 H         -15.1298   -5.3974   -3.4455 H       1  LIG1        0.0831
     63 H         -13.7856   -4.4510   -4.1281 H       1  LIG1        0.0831
     64 H          -3.7069   -1.8440   -0.2587 H       1  LIG1        0.0506
     65 H          -1.9056    2.9408   -4.9229 H       1  LIG1        0.0246
     66 H          -0.5067    2.7905   -3.8328 H       1  LIG1        0.0246
     67 H          -0.2656    2.7826   -5.5964 H       1  LIG1        0.0246
     68 H          -5.8765    2.2209   -2.1864 H       1  LIG1        0.0246
     69 H          -6.0810    1.0617   -0.8513 H       1  LIG1        0.0246
     70 H          -4.5833    2.0149   -0.9807 H       1  LIG1        0.0246
     71 H         -16.6020   -2.2622   -4.6291 H       1  LIG1        0.0777
     72 H         -15.2093   -3.0669   -5.3913 H       1  LIG1        0.0777
     73 H         -16.6003   -4.0298   -4.8380 H       1  LIG1        0.0777
     74 H          -1.5039    0.6402   -5.7560 H       1  LIG1        0.0463
     75 H          -0.1048    0.4897   -4.6658 H       1  LIG1        0.0463
     76 H          -4.3184    0.8445   -3.3071 H       1  LIG1        0.0466
     77 H          -5.5033   -0.3235   -2.6747 H       1  LIG1        0.0466
     78 H          -7.8296   -3.7826    0.6542 H       1  LIG1        0.1529
     79 H          -2.3599    1.2096   -3.1255 H       1  LIG1        0.1466
     80 H         -14.3173   -4.9425    2.4504 H       1  LIG1        0.1719
     81 H         -14.7801   -2.5033   -3.1149 H       1  LIG1        0.2001
@<TRIPOS>BOND
     1     1     3   ar
     2     1     7   ar
     3     2     4   ar
     4     2     9   ar
     5     3    11   ar
     6     4    10   ar
     7     5     8   ar
     8     5    10   ar
     9     6     8   ar
    10     6    12   ar
    11     7    29   ar
    12     8     9   ar
    13     9    30   ar
    14    10    34    1
    15    11    13   ar
    16    11    33    1
    17    12    14    1
    18    12    30   ar
    19    13    29   ar
    20    13    35    1
    21    14    31   am
    22    14    37    2
    23    15    17    1
    24    15    23    1
    25    16    18    1
    26    16    23    1
    27    17    31    1
    28    18    31    1
    29    19    21    1
    30    19    32    1
    31    20    22    1
    32    20    32    1
    33    21    36    1
    34    22    36    1
    35    23    35    1
    36    24    27    1
    37    25    28    1
    38    26    36    1
    39    27    33    1
    40    28    35    1
    41    32    40    1
    42    34    40    1
    43    38    40    2
    44    39    40    2
    45     1    41    1
    46     2    42    1
    47     3    43    1
    48     4    44    1
    49     5    45    1
    50     6    46    1
    51     7    47    1
    52    15    48    1
    53    15    49    1
    54    16    50    1
    55    16    51    1
    56    17    52    1
    57    17    53    1
    58    18    54    1
    59    18    55    1
    60    19    56    1
    61    19    57    1
    62    20    58    1
    63    20    59    1
    64    21    60    1
    65    21    61    1
    66    22    62    1
    67    22    63    1
    68    23    64    1
    69    24    65    1
    70    24    66    1
    71    24    67    1
    72    25    68    1
    73    25    69    1
    74    25    70    1
    75    26    71    1
    76    26    72    1
    77    26    73    1
    78    27    74    1
    79    27    75    1
    80    28    76    1
    81    28    77    1
    82    30    78    1
    83    33    79    1
    84    34    80    1
    85    36    81    1
