@<TRIPOS>MOLECULE
ChEBML98329
 47 51 0 0 0
SMALL
USER_CHARGES

@<TRIPOS>ATOM
      1 C         -13.0212   -4.4498    0.7311 C.ar    1  LIG1       -0.0614
      2 C         -12.0893   -5.3628    0.2324 C.ar    1  LIG1       -0.0596
      3 C          -9.6290   -0.3240    3.7186 C.ar    1  LIG1       -0.0610
      4 C         -12.6139   -3.3412    1.4854 C.ar    1  LIG1       -0.0516
      5 C         -10.7088   -1.0239    3.1636 C.ar    1  LIG1       -0.0516
      6 C          -8.3177   -0.7758    3.5549 C.ar    1  LIG1       -0.0511
      7 C         -10.7209   -5.2033    0.4690 C.ar    1  LIG1       -0.0306
      8 C          -2.1322    0.9141   -3.4926 C.ar    1  LIG1       -0.0252
      9 C          -3.2377    1.4899   -2.9004 C.ar    1  LIG1        0.0322
     10 C          -1.8104   -0.3529   -3.0507 C.ar    1  LIG1        0.0322
     11 C         -11.2414   -3.1593    1.7363 C.ar    1  LIG1        0.0152
     12 C         -10.4512   -2.1981    2.4321 C.ar    1  LIG1        0.0157
     13 C          -8.0373   -1.9396    2.8331 C.ar    1  LIG1        0.0272
     14 C         -10.3459   -4.0919    1.2224 C.ar    1  LIG1        0.0900
     15 C          -9.1309   -2.6142    2.2927 C.ar    1  LIG1        0.0984
     16 C          -3.5636   -0.3485   -1.6039 C.ar    1  LIG1        0.2165
     17 C          -5.7261   -0.6417   -0.5980 C.3     1  LIG1        0.0537
     18 C          -3.6375   -1.1156    0.6703 C.3     1  LIG1        0.0537
     19 C          -6.4946   -1.5835    0.3192 C.3     1  LIG1       -0.0177
     20 C          -4.4121   -2.0528    1.5883 C.3     1  LIG1       -0.0177
     21 C          -6.6314   -2.4042    2.6702 C.3     1  LIG1       -0.0055
     22 N          -3.9792    0.8849   -1.9494 N.ar    1  LIG1       -0.2235
     23 N          -2.5066   -1.0162   -2.1043 N.ar    1  LIG1       -0.2235
     24 N          -4.3019   -0.9996   -0.6317 N.pl3   1  LIG1       -0.2896
     25 N          -5.8515   -1.6002    1.6881 N.4     1  LIG1        0.2517
     26 O          -9.0686   -3.7610    1.5604 O.2     1  LIG1       -0.3086
     27 H         -14.0791   -4.5999    0.5311 H       1  LIG1        0.0623
     28 H         -12.4338   -6.2139   -0.3498 H       1  LIG1        0.0623
     29 H          -9.8155    0.5848    4.2852 H       1  LIG1        0.0623
     30 H         -13.3511   -2.6402    1.8655 H       1  LIG1        0.0630
     31 H         -11.7227   -0.6597    3.3003 H       1  LIG1        0.0630
     32 H          -7.5056   -0.2053    4.0006 H       1  LIG1        0.0628
     33 H          -9.9921   -5.9076    0.0860 H       1  LIG1        0.0650
     34 H          -1.5542    1.4224   -4.2525 H       1  LIG1        0.0655
     35 H          -3.5683    2.4837   -3.1833 H       1  LIG1        0.0841
     36 H          -0.9572   -0.8856   -3.4570 H       1  LIG1        0.0841
     37 H          -6.1564   -0.7048   -1.6052 H       1  LIG1        0.0525
     38 H          -5.8404    0.3945   -0.2538 H       1  LIG1        0.0525
     39 H          -3.5518   -0.1240    1.1339 H       1  LIG1        0.0525
     40 H          -2.6214   -1.5099    0.5444 H       1  LIG1        0.0525
     41 H          -7.5276   -1.2434    0.4460 H       1  LIG1        0.0831
     42 H          -6.4899   -2.6129   -0.0575 H       1  LIG1        0.0831
     43 H          -4.4187   -3.0808    1.2081 H       1  LIG1        0.0831
     44 H          -3.9928   -2.0379    2.5996 H       1  LIG1        0.0831
     45 H          -6.0749   -2.3557    3.6168 H       1  LIG1        0.0870
     46 H          -6.5857   -3.4451    2.3196 H       1  LIG1        0.0870
     47 H          -5.8395   -0.6251    2.0297 H       1  LIG1        0.2008
@<TRIPOS>BOND
     1     1     2   ar
     2     1     4   ar
     3     2     7   ar
     4     3     5   ar
     5     3     6   ar
     6     4    11   ar
     7     5    12   ar
     8     6    13   ar
     9     7    14   ar
    10     8     9   ar
    11     8    10   ar
    12     9    22   ar
    13    10    23   ar
    14    11    12   ar
    15    11    14   ar
    16    12    15   ar
    17    13    15   ar
    18    13    21    1
    19    14    26   ar
    20    15    26   ar
    21    16    22   ar
    22    16    23   ar
    23    16    24    1
    24    17    19    1
    25    17    24    1
    26    18    20    1
    27    18    24    1
    28    19    25    1
    29    20    25    1
    30    21    25    1
    31     1    27    1
    32     2    28    1
    33     3    29    1
    34     4    30    1
    35     5    31    1
    36     6    32    1
    37     7    33    1
    38     8    34    1
    39     9    35    1
    40    10    36    1
    41    17    37    1
    42    17    38    1
    43    18    39    1
    44    18    40    1
    45    19    41    1
    46    19    42    1
    47    20    43    1
    48    20    44    1
    49    21    45    1
    50    21    46    1
    51    25    47    1
