@<TRIPOS>MOLECULE
ChEBML409605
 40 43 0 0 0
SMALL
USER_CHARGES

@<TRIPOS>ATOM
      1 C         -10.0754   -4.9925    0.3156 C.ar    1  LIG1       -0.0376
      2 C         -11.4179   -5.3781    0.3660 C.ar    1  LIG1       -0.0299
      3 C         -11.9789   -3.4557    1.7394 C.ar    1  LIG1       -0.0223
      4 C          -6.0047   -0.4245    0.4467 C.ar    1  LIG1        0.0403
      5 C          -4.2279   -1.6582    1.0718 C.ar    1  LIG1        0.0736
      6 C         -10.6313   -3.0467    1.7034 C.ar    1  LIG1        0.0036
      7 C          -9.9044   -1.9586    2.2491 C.ar    1  LIG1       -0.0133
      8 C          -9.7105   -3.8230    0.9922 C.ar    1  LIG1        0.0382
      9 C          -4.6655   -0.7575    0.1261 C.ar    1  LIG1        0.2789
     10 C         -12.3566   -4.6230    1.0661 C.ar    1  LIG1        0.0753
     11 C          -6.3445   -1.1317    1.5788 C.ar    1  LIG1        0.0669
     12 C          -8.5868   -2.0789    1.8639 C.ar    1  LIG1        0.0618
     13 C          -7.5870   -1.1180    2.2680 C.2     1  LIG1        0.1008
     14 C         -10.3120   -0.8064    3.0868 C.3     1  LIG1       -0.0055
     15 C          -9.1209   -0.3681    3.9539 C.3     1  LIG1        0.0439
     16 C          -5.1882   -2.7660    3.0895 C.3     1  LIG1        0.0050
     17 C         -13.9843   -6.2200    0.3909 C.3     1  LIG1        0.0422
     18 N          -7.8373   -0.2735    3.2192 N.2     1  LIG1       -0.2810
     19 N          -8.4775   -3.2155    1.1107 N.ar    1  LIG1       -0.3124
     20 N          -5.2568   -1.8780    1.9501 N.ar    1  LIG1       -0.3023
     21 N          -3.8896   -0.2826   -0.9464 N.pl3   1  LIG1        0.1037
     22 O          -4.3901    0.5434   -1.7579 O.2     1  LIG1        0.0314
     23 O          -2.7031   -0.6884   -1.0830 O.2     1  LIG1       -0.5803
     24 O         -13.6588   -5.0239    1.0958 O.3     1  LIG1       -0.3493
     25 H          -9.3453   -5.5831   -0.2277 H       1  LIG1        0.0643
     26 H         -11.7268   -6.2842   -0.1501 H       1  LIG1        0.0651
     27 H         -12.7176   -2.8725    2.2826 H       1  LIG1        0.0657
     28 H          -6.6517    0.2571   -0.0896 H       1  LIG1        0.0716
     29 H          -3.2763   -2.1594    1.1950 H       1  LIG1        0.0865
     30 H         -10.6151    0.0200    2.4326 H       1  LIG1        0.0336
     31 H         -11.1650   -1.0580    3.7255 H       1  LIG1        0.0336
     32 H          -9.3408    0.6106    4.3943 H       1  LIG1        0.0518
     33 H          -8.9836   -1.0686    4.7873 H       1  LIG1        0.0518
     34 H          -4.8348   -2.1875    3.9472 H       1  LIG1        0.0436
     35 H          -6.1808   -3.1788    3.2898 H       1  LIG1        0.0436
     36 H          -4.4977   -3.5847    2.8687 H       1  LIG1        0.0436
     37 H         -15.0524   -6.4260    0.4952 H       1  LIG1        0.0535
     38 H         -13.4009   -7.0517    0.7939 H       1  LIG1        0.0535
     39 H         -13.7428   -6.0865   -0.6662 H       1  LIG1        0.0535
     40 H          -7.6235   -3.5626    0.6960 H       1  LIG1        0.1529
@<TRIPOS>BOND
     1     1     2   ar
     2     1     8   ar
     3     2    10   ar
     4     3     6   ar
     5     3    10   ar
     6     4     9   ar
     7     4    11   ar
     8     5     9   ar
     9     5    20   ar
    10     6     7   ar
    11     6     8   ar
    12     7    12   ar
    13     7    14    1
    14     8    19   ar
    15     9    21    1
    16    10    24    1
    17    11    13    1
    18    11    20   ar
    19    12    13    1
    20    12    19   ar
    21    13    18    2
    22    14    15    1
    23    15    18    1
    24    16    20    1
    25    17    24    1
    26    21    22    2
    27    21    23    2
    28     1    25    1
    29     2    26    1
    30     3    27    1
    31     4    28    1
    32     5    29    1
    33    14    30    1
    34    14    31    1
    35    15    32    1
    36    15    33    1
    37    16    34    1
    38    16    35    1
    39    16    36    1
    40    17    37    1
    41    17    38    1
    42    17    39    1
    43    19    40    1
