@<TRIPOS>MOLECULE
ChEBML895245
 27 29 0 0 0
SMALL
USER_CHARGES

@<TRIPOS>ATOM
      1 C          -2.2525    1.0011   -3.3219 C.ar    1  LIG1       -0.0360
      2 C         -10.1997   -1.6989    2.5488 C.ar    1  LIG1       -0.0445
      3 C         -11.0196   -2.7992    2.2865 C.ar    1  LIG1       -0.0422
      4 C          -1.8565   -0.1323   -2.5722 C.ar    1  LIG1       -0.0256
      5 C          -9.2145   -3.9249    1.1299 C.ar    1  LIG1       -0.0165
      6 C          -3.6010    1.1546   -3.0985 C.ar    1  LIG1        0.0462
      7 C          -8.3647   -2.8261    1.3815 C.ar    1  LIG1        0.0805
      8 C          -8.8739   -1.7318    2.0874 C.ar    1  LIG1        0.0401
      9 C         -10.5356   -3.8988    1.5864 C.ar    1  LIG1        0.0428
     10 C          -2.9912   -0.5903   -1.9441 C.ar    1  LIG1        0.1251
     11 C          -6.5597   -1.5576    1.3951 C.ar    1  LIG1        0.1354
     12 C          -3.2168   -1.7449   -1.0234 C.2     1  LIG1        0.1960
     13 C          -4.6206   -1.9771   -0.4963 C.3     1  LIG1        0.0658
     14 N          -7.0382   -2.7113    0.9918 N.ar    1  LIG1       -0.2334
     15 O          -2.2624   -2.4628   -0.7340 O.2     1  LIG1       -0.2909
     16 O          -4.0590    0.1888   -2.2596 O.2     1  LIG1       -0.3143
     17 S          -7.6366   -0.5424    2.2527 S.2     1  LIG1       -0.0609
     18 S          -4.9034   -1.0991    1.0631 S.3     1  LIG1       -0.0908
     19 CL        -11.5699   -5.2410    1.2777 Cl      1  LIG1       -0.0842
     20 H          -1.6327    1.6272   -3.9474 H       1  LIG1        0.0645
     21 H         -10.5843   -0.8436    3.0960 H       1  LIG1        0.0636
     22 H         -12.0477   -2.7795    2.6415 H       1  LIG1        0.0639
     23 H          -0.8660   -0.5589   -2.5016 H       1  LIG1        0.0652
     24 H          -8.8324   -4.7825    0.5823 H       1  LIG1        0.0661
     25 H          -4.3402    1.8623   -3.4443 H       1  LIG1        0.0901
     26 H          -4.7708   -3.0452   -0.3160 H       1  LIG1        0.0470
     27 H          -5.3511   -1.6078   -1.2213 H       1  LIG1        0.0470
@<TRIPOS>BOND
     1     1     4   ar
     2     1     6   ar
     3     2     3   ar
     4     2     8   ar
     5     3     9   ar
     6     4    10   ar
     7     5     7   ar
     8     5     9   ar
     9     6    16   ar
    10     7     8   ar
    11     7    14   ar
    12     8    17   ar
    13     9    19    1
    14    10    12    1
    15    10    16   ar
    16    11    14   ar
    17    11    17   ar
    18    11    18    1
    19    12    13    1
    20    12    15    2
    21    13    18    1
    22     1    20    1
    23     2    21    1
    24     3    22    1
    25     4    23    1
    26     5    24    1
    27     6    25    1
    28    13    26    1
    29    13    27    1
