@<TRIPOS>MOLECULE
ChEBML306029
 40 43 0 0 0
SMALL
USER_CHARGES

@<TRIPOS>ATOM
      1 C          -2.6960    1.3973   -3.5373 C.ar    1  LIG1       -0.0621
      2 C          -3.7069    1.3449   -2.5954 C.ar    1  LIG1       -0.0596
      3 C          -1.7377    0.4015   -3.5828 C.ar    1  LIG1       -0.0596
      4 C         -12.9655   -4.7268    1.7317 C.ar    1  LIG1       -0.0431
      5 C         -11.7570   -4.9263    1.1236 C.ar    1  LIG1       -0.0496
      6 C          -6.3588   -2.0527    0.0430 C.ar    1  LIG1       -0.0484
      7 C          -5.2106   -0.7462    1.7255 C.ar    1  LIG1       -0.0484
      8 C          -3.7617    0.2972   -1.6967 C.ar    1  LIG1       -0.0312
      9 C          -1.7846   -0.6454   -2.6828 C.ar    1  LIG1       -0.0312
     10 C          -5.1790   -2.1840   -0.6538 C.ar    1  LIG1       -0.0305
     11 C          -4.0338   -0.8873    1.0254 C.ar    1  LIG1       -0.0305
     12 C         -13.1644   -3.6057    2.5345 C.ar    1  LIG1        0.0277
     13 C          -9.4605   -4.1183    0.7782 C.ar    1  LIG1        0.0373
     14 C         -10.7393   -3.9839    1.3503 C.ar    1  LIG1        0.0213
     15 C          -6.3841   -1.3336    1.2421 C.ar    1  LIG1        0.0244
     16 C         -11.0100   -2.8698    2.1832 C.ar    1  LIG1        0.1041
     17 C          -2.8010   -0.7032   -1.7399 C.ar    1  LIG1        0.0820
     18 C          -4.0132   -1.6028   -0.1669 C.ar    1  LIG1        0.0821
     19 C          -9.9737   -1.9302    2.3929 C.ar    1  LIG1        0.1278
     20 C          -8.7426   -2.1536    1.7817 C.ar    1  LIG1        0.1430
     21 C          -7.6463   -1.1899    1.9919 C.2     1  LIG1        0.2136
     22 N         -12.2123   -2.7259    2.7384 N.ar    1  LIG1       -0.2533
     23 N          -8.5345   -3.2235    1.0081 N.ar    1  LIG1       -0.2491
     24 O          -7.7828   -0.2764    2.7835 O.2     1  LIG1       -0.2867
     25 O         -10.1724   -0.8418    3.1744 O.3     1  LIG1       -0.3567
     26 O          -2.8524   -1.7346   -0.8567 O.3     1  LIG1       -0.3104
     27 H          -2.6550    2.2173   -4.2389 H       1  LIG1        0.0622
     28 H          -4.4546    2.1236   -2.5624 H       1  LIG1        0.0623
     29 H          -0.9493    0.4446   -4.3197 H       1  LIG1        0.0623
     30 H         -13.7683   -5.4337    1.5827 H       1  LIG1        0.0639
     31 H         -11.5855   -5.7897    0.4979 H       1  LIG1        0.0631
     32 H          -7.2637   -2.5047   -0.3357 H       1  LIG1        0.0631
     33 H          -5.2268   -0.1863    2.6488 H       1  LIG1        0.0631
     34 H          -4.5516    0.2565   -0.9614 H       1  LIG1        0.0650
     35 H          -1.0333   -1.4206   -2.7158 H       1  LIG1        0.0650
     36 H          -5.1585   -2.7395   -1.5798 H       1  LIG1        0.0650
     37 H          -3.1262   -0.4377    1.4002 H       1  LIG1        0.0650
     38 H         -14.1269   -3.4571    3.0012 H       1  LIG1        0.0840
     39 H          -9.2424   -4.9655    0.1450 H       1  LIG1        0.0847
     40 H          -9.9289   -1.0961    4.0751 H       1  LIG1        0.2184
@<TRIPOS>BOND
     1     1     2   ar
     2     1     3   ar
     3     2     8   ar
     4     3     9   ar
     5     4     5   ar
     6     4    12   ar
     7     5    14   ar
     8     6    10   ar
     9     6    15   ar
    10     7    11   ar
    11     7    15   ar
    12     8    17   ar
    13     9    17   ar
    14    10    18   ar
    15    11    18   ar
    16    12    22   ar
    17    13    14   ar
    18    13    23   ar
    19    14    16   ar
    20    15    21    1
    21    16    19   ar
    22    16    22   ar
    23    17    26    1
    24    18    26    1
    25    19    20   ar
    26    19    25    1
    27    20    21    1
    28    20    23   ar
    29    21    24    2
    30     1    27    1
    31     2    28    1
    32     3    29    1
    33     4    30    1
    34     5    31    1
    35     6    32    1
    36     7    33    1
    37     8    34    1
    38     9    35    1
    39    10    36    1
    40    11    37    1
    41    12    38    1
    42    13    39    1
    43    25    40    1
