@<TRIPOS>MOLECULE
ChEBML408348
 36 38 0 0 0
SMALL
USER_CHARGES

@<TRIPOS>ATOM
      1 C          -1.7901    1.1059   -2.6221 C.ar    1  LIG1       -0.0622
      2 C          -3.0066    1.7873   -2.5831 C.ar    1  LIG1       -0.0620
      3 C          -1.7420   -0.2535   -2.3135 C.ar    1  LIG1       -0.0620
      4 C         -12.3060   -5.6938    1.3782 C.ar    1  LIG1       -0.0599
      5 C         -11.4400   -5.9284    0.3205 C.ar    1  LIG1       -0.0599
      6 C          -4.1749    1.1092   -2.2354 C.ar    1  LIG1       -0.0590
      7 C          -2.9103   -0.9317   -1.9660 C.ar    1  LIG1       -0.0590
      8 C         -12.0665   -4.6236    2.2384 C.ar    1  LIG1       -0.0342
      9 C         -10.3418   -5.0911    0.1325 C.ar    1  LIG1       -0.0342
     10 C          -9.6900   -1.9728    2.6831 C.ar    1  LIG1        0.0588
     11 C          -4.1268   -0.2503   -1.9269 C.ar    1  LIG1       -0.0464
     12 C         -10.9720   -3.7809    2.0592 C.ar    1  LIG1        0.0887
     13 C         -10.0933   -4.0191    0.9864 C.ar    1  LIG1        0.0896
     14 C          -8.8347   -2.2048    1.6389 C.ar    1  LIG1        0.1444
     15 C          -7.6783   -1.3631    1.4004 C.2     1  LIG1        0.2632
     16 C          -5.3903   -0.9844   -1.5505 C.3     1  LIG1       -0.0122
     17 C          -5.6692   -0.9592   -0.0496 C.3     1  LIG1        0.0154
     18 N         -10.7621   -2.7550    2.9026 N.ar    1  LIG1       -0.2521
     19 N          -9.0270   -3.2255    0.7842 N.ar    1  LIG1       -0.2395
     20 N          -6.8667   -1.6867    0.3043 N.am    1  LIG1       -0.3096
     21 O          -7.4192   -0.4091    2.1588 O.2     1  LIG1       -0.2700
     22 H          -0.8807    1.6338   -2.8941 H       1  LIG1        0.0622
     23 H          -3.0444    2.8456   -2.8243 H       1  LIG1        0.0623
     24 H          -0.7952   -0.7847   -2.3449 H       1  LIG1        0.0623
     25 H         -13.1651   -6.3385    1.5358 H       1  LIG1        0.0623
     26 H         -11.6153   -6.7585   -0.3569 H       1  LIG1        0.0623
     27 H          -5.1182    1.6483   -2.2074 H       1  LIG1        0.0625
     28 H          -2.8632   -1.9908   -1.7270 H       1  LIG1        0.0625
     29 H         -12.7542   -4.4511    3.0640 H       1  LIG1        0.0646
     30 H          -9.6703   -5.2870   -0.7013 H       1  LIG1        0.0646
     31 H          -9.5522   -1.1565    3.3819 H       1  LIG1        0.0865
     32 H          -5.3007   -2.0256   -1.8851 H       1  LIG1        0.0332
     33 H          -6.2419   -0.5630   -2.0999 H       1  LIG1        0.0332
     34 H          -4.8422   -1.4302    0.4912 H       1  LIG1        0.0470
     35 H          -5.7820    0.0642    0.3232 H       1  LIG1        0.0470
     36 H          -7.0853   -2.5112   -0.2454 H       1  LIG1        0.1497
@<TRIPOS>BOND
     1     1     2   ar
     2     1     3   ar
     3     2     6   ar
     4     3     7   ar
     5     4     5   ar
     6     4     8   ar
     7     5     9   ar
     8     6    11   ar
     9     7    11   ar
    10     8    12   ar
    11     9    13   ar
    12    10    14   ar
    13    10    18   ar
    14    11    16    1
    15    12    13   ar
    16    12    18   ar
    17    13    19   ar
    18    14    15    1
    19    14    19   ar
    20    15    20   am
    21    15    21    2
    22    16    17    1
    23    17    20    1
    24     1    22    1
    25     2    23    1
    26     3    24    1
    27     4    25    1
    28     5    26    1
    29     6    27    1
    30     7    28    1
    31     8    29    1
    32     9    30    1
    33    10    31    1
    34    16    32    1
    35    16    33    1
    36    17    34    1
    37    17    35    1
    38    20    36    1
