@<TRIPOS>MOLECULE
ChEBML204736
 69 72 0 0 0
SMALL
USER_CHARGES

@<TRIPOS>ATOM
      1 C          -2.1366   -2.6611   -5.3615 C.ar    1  LIG1       -0.0418
      2 C         -10.0563   -5.4817    1.3417 C.ar    1  LIG1       -0.0383
      3 C          -1.5862   -2.3537   -4.1222 C.ar    1  LIG1       -0.0360
      4 C         -11.3778   -5.9335    1.3990 C.ar    1  LIG1       -0.0377
      5 C         -12.1985   -3.6712    1.7234 C.ar    1  LIG1       -0.0304
      6 C         -10.2820   -1.9021    1.7669 C.ar    1  LIG1       -0.0261
      7 C          -3.4549   -3.0862   -5.3982 C.ar    1  LIG1        0.0292
      8 C         -10.8744   -3.1922    1.6690 C.ar    1  LIG1       -0.0003
      9 C          -9.8360   -4.1066    1.4797 C.ar    1  LIG1        0.0379
     10 C         -12.4339   -5.0441    1.5868 C.ar    1  LIG1        0.0437
     11 C          -2.3600   -2.4789   -2.9737 C.ar    1  LIG1        0.0672
     12 C          -8.9209   -2.0554    1.6378 C.ar    1  LIG1        0.0947
     13 C          -3.6683   -2.9119   -3.1173 C.ar    1  LIG1        0.1414
     14 C          -7.9046   -1.0445    1.6694 C.2     1  LIG1        0.2598
     15 C          -4.7978   -1.5286   -0.0647 C.3     1  LIG1       -0.0185
     16 C          -6.7386   -2.3105   -1.4883 C.3     1  LIG1       -0.0185
     17 C          -5.7191   -0.4761    0.5505 C.3     1  LIG1        0.0162
     18 C          -7.6168   -1.2508   -0.8210 C.3     1  LIG1        0.0162
     19 C          -5.2505   -1.9369   -1.4723 C.3     1  LIG1        0.0271
     20 C          -4.9893   -5.4147   -2.0726 C.3     1  LIG1       -0.0494
     21 C           0.4804   -2.9178   -1.6219 C.3     1  LIG1       -0.0470
     22 C          -0.3387   -0.9906   -0.2215 C.3     1  LIG1       -0.0470
     23 C         -14.2698   -6.4075   -0.8510 C.3     1  LIG1        0.0225
     24 C          -4.4758   -4.3006   -1.2253 C.3     1  LIG1        0.0104
     25 C          -0.4552   -1.7196   -1.5520 C.3     1  LIG1        0.0142
     26 N          -4.2378   -3.2199   -4.3041 N.ar    1  LIG1       -0.2394
     27 N          -8.6616   -3.3885    1.4649 N.ar    1  LIG1       -0.3101
     28 N          -7.1162   -0.9294    0.5165 N.am    1  LIG1       -0.2966
     29 N          -1.8047   -2.1681   -1.7183 N.pl3   1  LIG1       -0.3393
     30 N         -13.7735   -5.5374    1.6407 N.pl3   1  LIG1       -0.2633
     31 N          -4.4536   -3.0415   -1.9667 N.pl3   1  LIG1       -0.3114
     32 O          -7.7599   -0.3365    2.6645 O.2     1  LIG1       -0.2702
     33 O         -16.1743   -5.5521    0.7008 O.2     1  LIG1       -0.4814
     34 O         -14.5397   -3.8789   -0.2339 O.2     1  LIG1       -0.4814
     35 S         -14.8221   -5.1881    0.3204 S.O2    1  LIG1       -0.1957
     36 H          -1.5524   -2.5710   -6.2700 H       1  LIG1        0.0639
     37 H          -9.2348   -6.1749    1.1954 H       1  LIG1        0.0643
     38 H          -0.5543   -2.0178   -4.0642 H       1  LIG1        0.0644
     39 H         -11.5723   -6.9988    1.2942 H       1  LIG1        0.0643
     40 H         -13.0242   -2.9797    1.8698 H       1  LIG1        0.0650
     41 H         -10.8005   -0.9641    1.9159 H       1  LIG1        0.0651
     42 H          -3.9317   -3.3388   -6.3395 H       1  LIG1        0.0840
     43 H          -3.7697   -1.1483   -0.0871 H       1  LIG1        0.0302
     44 H          -4.8004   -2.4191    0.5770 H       1  LIG1        0.0302
     45 H          -6.8641   -3.2580   -0.9481 H       1  LIG1        0.0302
     46 H          -7.0834   -2.4781   -2.5155 H       1  LIG1        0.0302
     47 H          -5.3896   -0.2644    1.5710 H       1  LIG1        0.0470
     48 H          -5.6675    0.4686   -0.0024 H       1  LIG1        0.0470
     49 H          -7.6184   -0.3225   -1.4036 H       1  LIG1        0.0470
     50 H          -8.6508   -1.6068   -0.7745 H       1  LIG1        0.0470
     51 H          -5.0932   -1.0898   -2.1500 H       1  LIG1        0.0506
     52 H          -6.0117   -5.2110   -2.4086 H       1  LIG1        0.0246
     53 H          -4.3461   -5.5691   -2.9459 H       1  LIG1        0.0246
     54 H          -5.0032   -6.3457   -1.4933 H       1  LIG1        0.0246
     55 H           0.2691   -3.6251   -0.8133 H       1  LIG1        0.0249
     56 H           0.3797   -3.4489   -2.5750 H       1  LIG1        0.0249
     57 H           1.5251   -2.6008   -1.5308 H       1  LIG1        0.0249
     58 H          -0.5640   -1.6651    0.6118 H       1  LIG1        0.0249
     59 H          -1.0380   -0.1493   -0.1751 H       1  LIG1        0.0249
     60 H           0.6738   -0.6017   -0.0652 H       1  LIG1        0.0249
     61 H         -14.8612   -6.3028   -1.7619 H       1  LIG1        0.0442
     62 H         -13.2132   -6.2317   -1.0587 H       1  LIG1        0.0442
     63 H         -14.4143   -7.3962   -0.4128 H       1  LIG1        0.0442
     64 H          -3.4546   -4.5105   -0.8933 H       1  LIG1        0.0466
     65 H          -5.1102   -4.1582   -0.3455 H       1  LIG1        0.0466
     66 H          -0.2260   -1.0266   -2.3689 H       1  LIG1        0.0497
     67 H          -7.7422   -3.7911    1.3439 H       1  LIG1        0.1529
     68 H          -2.3993   -2.2740   -0.9164 H       1  LIG1        0.1469
     69 H         -13.8566   -6.4970    2.0142 H       1  LIG1        0.1702
@<TRIPOS>BOND
     1     1     3   ar
     2     1     7   ar
     3     2     4   ar
     4     2     9   ar
     5     3    11   ar
     6     4    10   ar
     7     5     8   ar
     8     5    10   ar
     9     6     8   ar
    10     6    12   ar
    11     7    26   ar
    12     8     9   ar
    13     9    27   ar
    14    10    30    1
    15    11    13   ar
    16    11    29    1
    17    12    14    1
    18    12    27   ar
    19    13    26   ar
    20    13    31    1
    21    14    28   am
    22    14    32    2
    23    15    17    1
    24    15    19    1
    25    16    18    1
    26    16    19    1
    27    17    28    1
    28    18    28    1
    29    19    31    1
    30    20    24    1
    31    21    25    1
    32    22    25    1
    33    23    35    1
    34    24    31    1
    35    25    29    1
    36    30    35    1
    37    33    35    2
    38    34    35    2
    39     1    36    1
    40     2    37    1
    41     3    38    1
    42     4    39    1
    43     5    40    1
    44     6    41    1
    45     7    42    1
    46    15    43    1
    47    15    44    1
    48    16    45    1
    49    16    46    1
    50    17    47    1
    51    17    48    1
    52    18    49    1
    53    18    50    1
    54    19    51    1
    55    20    52    1
    56    20    53    1
    57    20    54    1
    58    21    55    1
    59    21    56    1
    60    21    57    1
    61    22    58    1
    62    22    59    1
    63    22    60    1
    64    23    61    1
    65    23    62    1
    66    23    63    1
    67    24    64    1
    68    24    65    1
    69    25    66    1
    70    27    67    1
    71    29    68    1
    72    30    69    1
