@<TRIPOS>MOLECULE
ChEBML2161
 51 54 0 0 0
SMALL
USER_CHARGES

@<TRIPOS>ATOM
      1 C          -3.1816   -1.0799   -2.3903 C.ar    1  LIG1       -0.0615
      2 C          -2.4554   -0.6346   -1.2874 C.ar    1  LIG1       -0.0603
      3 C          -4.5448   -1.3763   -2.2781 C.ar    1  LIG1       -0.0530
      4 C          -3.0659   -0.4715   -0.0406 C.ar    1  LIG1       -0.0402
      5 C         -10.2182   -5.2436    0.5955 C.ar    1  LIG1       -0.0376
      6 C         -11.5500   -5.6439    0.7366 C.ar    1  LIG1       -0.0299
      7 C         -12.1410   -3.5204    1.7555 C.ar    1  LIG1       -0.0226
      8 C          -6.5112   -1.4206   -0.5648 C.ar    1  LIG1       -0.0276
      9 C         -10.1063   -1.9008    1.9588 C.ar    1  LIG1       -0.0275
     10 C          -5.1818   -1.2197   -1.0311 C.ar    1  LIG1       -0.0022
     11 C         -10.8043   -3.0948    1.6237 C.ar    1  LIG1        0.0003
     12 C          -4.4292   -0.7719    0.0566 C.ar    1  LIG1        0.0378
     13 C          -9.8756   -3.9644    1.0480 C.ar    1  LIG1        0.0379
     14 C         -12.4983   -4.7973    1.3073 C.ar    1  LIG1        0.0757
     15 C          -6.5393   -1.0972    0.7722 C.ar    1  LIG1        0.0811
     16 C          -8.7919   -2.0658    1.5872 C.ar    1  LIG1        0.0811
     17 C          -7.7100   -1.1424    1.7216 C.2     1  LIG1        0.2206
     18 C         -18.3418   -4.7963    0.8698 C.3     1  LIG1       -0.0457
     19 C         -17.9633   -3.0355   -0.8497 C.3     1  LIG1       -0.0457
     20 C         -15.7662   -5.9423    0.2829 C.3     1  LIG1        0.0104
     21 C         -16.0914   -4.5266   -0.1622 C.3     1  LIG1       -0.0326
     22 C         -14.2670   -6.1391    0.4548 C.3     1  LIG1        0.0583
     23 N          -5.2789   -0.7067    1.1379 N.ar    1  LIG1       -0.3112
     24 N          -8.6625   -3.3134    1.0386 N.ar    1  LIG1       -0.3112
     25 N         -17.5559   -4.4030   -0.3575 N.4     1  LIG1        0.2418
     26 O          -7.6797   -0.3069    2.6552 O.2     1  LIG1       -0.2856
     27 O         -13.7893   -5.2164    1.4312 O.3     1  LIG1       -0.3458
     28 H          -2.6849   -1.1981   -3.3498 H       1  LIG1        0.0623
     29 H          -1.3977   -0.4105   -1.3972 H       1  LIG1        0.0623
     30 H          -5.0991   -1.7222   -3.1461 H       1  LIG1        0.0629
     31 H          -2.5003   -0.1254    0.8180 H       1  LIG1        0.0642
     32 H          -9.4807   -5.9032    0.1507 H       1  LIG1        0.0643
     33 H         -11.8427   -6.6335    0.3929 H       1  LIG1        0.0651
     34 H         -12.8866   -2.8657    2.1987 H       1  LIG1        0.0657
     35 H          -7.3541   -1.7652   -1.1489 H       1  LIG1        0.0651
     36 H         -10.5253   -1.0175    2.4225 H       1  LIG1        0.0651
     37 H         -18.0695   -4.1108    1.6745 H       1  LIG1        0.0777
     38 H         -19.4030   -4.7152    0.6272 H       1  LIG1        0.0777
     39 H         -18.0744   -5.8241    1.1226 H       1  LIG1        0.0777
     40 H         -17.6820   -2.3082   -0.0859 H       1  LIG1        0.0777
     41 H         -17.4346   -2.8461   -1.7859 H       1  LIG1        0.0777
     42 H         -19.0440   -3.0443   -1.0042 H       1  LIG1        0.0777
     43 H         -16.1470   -6.6708   -0.4445 H       1  LIG1        0.0344
     44 H         -16.2735   -6.1741    1.2280 H       1  LIG1        0.0344
     45 H         -15.6216   -4.2795   -1.1187 H       1  LIG1        0.0815
     46 H         -15.8077   -3.7851    0.5905 H       1  LIG1        0.0815
     47 H         -13.7386   -5.9553   -0.4860 H       1  LIG1        0.0574
     48 H         -14.0433   -7.1547    0.7968 H       1  LIG1        0.0574
     49 H          -5.0077   -0.4136    2.0665 H       1  LIG1        0.1529
     50 H          -7.8027   -3.7035    0.6777 H       1  LIG1        0.1529
     51 H         -17.8343   -5.0681   -1.0997 H       1  LIG1        0.1997
@<TRIPOS>BOND
     1     1     2   ar
     2     1     3   ar
     3     2     4   ar
     4     3    10   ar
     5     4    12   ar
     6     5     6   ar
     7     5    13   ar
     8     6    14   ar
     9     7    11   ar
    10     7    14   ar
    11     8    10   ar
    12     8    15   ar
    13     9    11   ar
    14     9    16   ar
    15    10    12   ar
    16    11    13   ar
    17    12    23   ar
    18    13    24   ar
    19    14    27    1
    20    15    17    1
    21    15    23   ar
    22    16    17    1
    23    16    24   ar
    24    17    26    2
    25    18    25    1
    26    19    25    1
    27    20    21    1
    28    20    22    1
    29    21    25    1
    30    22    27    1
    31     1    28    1
    32     2    29    1
    33     3    30    1
    34     4    31    1
    35     5    32    1
    36     6    33    1
    37     7    34    1
    38     8    35    1
    39     9    36    1
    40    18    37    1
    41    18    38    1
    42    18    39    1
    43    19    40    1
    44    19    41    1
    45    19    42    1
    46    20    43    1
    47    20    44    1
    48    21    45    1
    49    21    46    1
    50    22    47    1
    51    22    48    1
    52    23    49    1
    53    24    50    1
    54    25    51    1
