@<TRIPOS>MOLECULE
ChEBML300377
 56 58 0 0 0
SMALL
USER_CHARGES

@<TRIPOS>ATOM
      1 C         -10.3369   -5.2385    0.5613 C.ar    1  LIG1       -0.0387
      2 C         -11.6135   -5.6829    0.9172 C.ar    1  LIG1       -0.0416
      3 C         -11.9187   -3.7920    2.4100 C.ar    1  LIG1       -0.0343
      4 C          -9.8539   -2.1986    2.4510 C.ar    1  LIG1       -0.0262
      5 C         -10.6347   -3.3245    2.0666 C.ar    1  LIG1       -0.0007
      6 C          -9.8750   -4.0569    1.1520 C.ar    1  LIG1        0.0379
      7 C         -12.3940   -4.9724    1.8271 C.ar    1  LIG1        0.0413
      8 C          -8.6576   -2.2682    1.7753 C.ar    1  LIG1        0.0945
      9 C          -7.5081   -1.3291    1.8365 C.2     1  LIG1        0.2576
     10 C          -5.3345    0.2177   -0.0654 C.2     1  LIG1        0.2319
     11 C          -3.3164    3.7532   -2.3957 C.3     1  LIG1       -0.0515
     12 C          -2.7353    2.7164   -3.3612 C.3     1  LIG1       -0.0515
     13 C          -3.7792    2.9731   -1.1680 C.3     1  LIG1       -0.0344
     14 C          -2.8794    1.3652   -2.6658 C.3     1  LIG1       -0.0344
     15 C          -4.0485    1.5749   -1.7111 C.3     1  LIG1        0.0254
     16 C          -0.5261   -2.5680   -2.9279 C.3     1  LIG1       -0.0390
     17 C          -0.0491   -3.8623   -0.8188 C.3     1  LIG1       -0.0390
     18 C          -5.2189   -0.8503    1.0078 C.3     1  LIG1        0.0887
     19 C          -2.8354   -0.0329   -0.2905 C.3     1  LIG1        0.0380
     20 C          -2.5839   -1.2626   -1.1438 C.3     1  LIG1        0.0628
     21 C          -1.0497   -2.9924   -1.5643 C.3     1  LIG1        0.0520
     22 N          -8.6797   -3.3924    0.9941 N.ar    1  LIG1       -0.3101
     23 N          -6.4128   -1.6458    1.0391 N.am    1  LIG1       -0.3013
     24 N          -4.1121    0.5828   -0.6775 N.am    1  LIG1       -0.2952
     25 O          -7.5680   -0.3552    2.5826 O.2     1  LIG1       -0.2704
     26 O          -6.4301    0.7053   -0.3556 O.2     1  LIG1       -0.2756
     27 O          -1.3310   -1.8345   -0.7903 O.3     1  LIG1       -0.3771
     28 CL        -13.9635   -5.5514    2.2397 Cl      1  LIG1       -0.0843
     29 H          -9.7301   -5.7929   -0.1468 H       1  LIG1        0.0643
     30 H         -11.9889   -6.6001    0.4681 H       1  LIG1        0.0639
     31 H         -12.5261   -3.2372    3.1203 H       1  LIG1        0.0645
     32 H         -10.1409   -1.4224    3.1481 H       1  LIG1        0.0651
     33 H          -2.5810    4.5182   -2.1273 H       1  LIG1        0.0267
     34 H          -4.1651    4.2629   -2.8661 H       1  LIG1        0.0267
     35 H          -3.3018    2.7255   -4.2995 H       1  LIG1        0.0267
     36 H          -1.6898    2.9287   -3.6065 H       1  LIG1        0.0267
     37 H          -2.9824    2.9546   -0.4135 H       1  LIG1        0.0285
     38 H          -4.6641    3.4185   -0.7029 H       1  LIG1        0.0285
     39 H          -3.0585    0.5509   -3.3749 H       1  LIG1        0.0285
     40 H          -1.9598    1.1282   -2.1159 H       1  LIG1        0.0285
     41 H          -4.9988    1.5496   -2.2576 H       1  LIG1        0.0506
     42 H           0.4148   -2.0165   -2.8381 H       1  LIG1        0.0257
     43 H          -0.3585   -3.4454   -3.5617 H       1  LIG1        0.0257
     44 H          -1.2535   -1.9372   -3.4509 H       1  LIG1        0.0257
     45 H           0.9031   -3.3419   -0.6787 H       1  LIG1        0.0257
     46 H           0.1367   -4.7892   -1.3721 H       1  LIG1        0.0257
     47 H          -0.4363   -4.1549    0.1634 H       1  LIG1        0.0257
     48 H          -4.3819   -1.5186    0.7900 H       1  LIG1        0.0567
     49 H          -5.1040   -0.3900    1.9927 H       1  LIG1        0.0567
     50 H          -2.8872   -0.2909    0.7720 H       1  LIG1        0.0493
     51 H          -2.0413    0.7046   -0.4417 H       1  LIG1        0.0493
     52 H          -2.5413   -0.9829   -2.2011 H       1  LIG1        0.0583
     53 H          -3.3664   -2.0158   -1.0051 H       1  LIG1        0.0583
     54 H          -1.9895   -3.5403   -1.6882 H       1  LIG1        0.0597
     55 H          -7.9290   -3.6941    0.3880 H       1  LIG1        0.1529
     56 H          -6.4194   -2.5081    0.4953 H       1  LIG1        0.1503
@<TRIPOS>BOND
     1     1     2   ar
     2     1     6   ar
     3     2     7   ar
     4     3     5   ar
     5     3     7   ar
     6     4     5   ar
     7     4     8   ar
     8     5     6   ar
     9     6    22   ar
    10     7    28    1
    11     8     9    1
    12     8    22   ar
    13     9    23   am
    14     9    25    2
    15    10    18    1
    16    10    24   am
    17    10    26    2
    18    11    12    1
    19    11    13    1
    20    12    14    1
    21    13    15    1
    22    14    15    1
    23    15    24    1
    24    16    21    1
    25    17    21    1
    26    18    23    1
    27    19    20    1
    28    19    24    1
    29    20    27    1
    30    21    27    1
    31     1    29    1
    32     2    30    1
    33     3    31    1
    34     4    32    1
    35    11    33    1
    36    11    34    1
    37    12    35    1
    38    12    36    1
    39    13    37    1
    40    13    38    1
    41    14    39    1
    42    14    40    1
    43    15    41    1
    44    16    42    1
    45    16    43    1
    46    16    44    1
    47    17    45    1
    48    17    46    1
    49    17    47    1
    50    18    48    1
    51    18    49    1
    52    19    50    1
    53    19    51    1
    54    20    52    1
    55    20    53    1
    56    21    54    1
    57    22    55    1
    58    23    56    1
