@<TRIPOS>MOLECULE
ChEBML411658
 42 44 0 0 0
SMALL
USER_CHARGES

@<TRIPOS>ATOM
      1 C          -2.0185    1.3828   -3.4838 C.ar    1  LIG1       -0.0622
      2 C          -3.2114    1.9765   -3.8959 C.ar    1  LIG1       -0.0620
      3 C          -2.0472    0.2682   -2.6456 C.ar    1  LIG1       -0.0620
      4 C          -4.4332    1.4557   -3.4699 C.ar    1  LIG1       -0.0588
      5 C          -3.2690   -0.2527   -2.2195 C.ar    1  LIG1       -0.0588
      6 C          -9.0699   -1.8430    2.5036 C.ar    1  LIG1       -0.0526
      7 C         -10.3535   -2.2219    2.9011 C.ar    1  LIG1       -0.0471
      8 C          -9.1877   -3.3308    0.6040 C.ar    1  LIG1       -0.0453
      9 C         -11.3917   -4.6708    0.3681 C.ar    1  LIG1       -0.0344
     10 C         -10.4911   -3.7360    0.9806 C.ar    1  LIG1       -0.0099
     11 C          -4.4621    0.3411   -2.6317 C.ar    1  LIG1       -0.0428
     12 C          -8.4911   -2.3903    1.3673 C.ar    1  LIG1       -0.0036
     13 C         -11.0531   -3.1704    2.1293 C.ar    1  LIG1        0.0197
     14 C         -12.5816   -4.7901    1.0460 C.ar    1  LIG1        0.0775
     15 C         -13.7060   -5.6132    0.7388 C.2     1  LIG1        0.2724
     16 C          -5.7768   -0.2200   -2.1726 C.3     1  LIG1        0.0116
     17 C          -7.1183   -1.9747    0.9571 C.3     1  LIG1       -0.0101
     18 C          -5.7182   -0.8854   -0.8013 C.3     1  LIG1       -0.0317
     19 N         -14.9770   -5.1627    1.1164 N.am    1  LIG1       -0.1935
     20 N          -7.0680   -1.3581   -0.3972 N.4     1  LIG1        0.2421
     21 O         -13.5792   -6.7109    0.1352 O.2     1  LIG1       -0.2690
     22 O         -16.0785   -5.9709    0.7992 O.3     1  LIG1       -0.2964
     23 S         -12.6369   -3.7861    2.4222 S.2     1  LIG1       -0.0838
     24 H          -1.0671    1.7877   -3.8166 H       1  LIG1        0.0622
     25 H          -3.1892    2.8437   -4.5494 H       1  LIG1        0.0623
     26 H          -1.1186   -0.1949   -2.3254 H       1  LIG1        0.0623
     27 H          -5.3577    1.9249   -3.7960 H       1  LIG1        0.0625
     28 H          -3.2818   -1.1214   -1.5665 H       1  LIG1        0.0625
     29 H          -8.5282   -1.1111    3.0978 H       1  LIG1        0.0628
     30 H         -10.7988   -1.7883    3.7920 H       1  LIG1        0.0635
     31 H          -8.7286   -3.7561   -0.2860 H       1  LIG1        0.0634
     32 H         -11.1639   -5.2271   -0.5334 H       1  LIG1        0.0643
     33 H          -6.5090    0.5973   -2.1292 H       1  LIG1        0.0370
     34 H          -6.1688   -0.9284   -2.9140 H       1  LIG1        0.0370
     35 H          -6.6964   -1.2334    1.6491 H       1  LIG1        0.0868
     36 H          -6.4280   -2.8287    0.9328 H       1  LIG1        0.0868
     37 H          -5.4010   -0.1706   -0.0363 H       1  LIG1        0.0817
     38 H          -5.0562   -1.7565   -0.7800 H       1  LIG1        0.0817
     39 H         -15.0970   -4.2823    1.6025 H       1  LIG1        0.1839
     40 H          -7.4089   -2.0392   -1.0885 H       1  LIG1        0.1986
     41 H          -7.7271   -0.5691   -0.4309 H       1  LIG1        0.1986
     42 H         -15.6275   -6.7086    0.3545 H       1  LIG1        0.2427
@<TRIPOS>BOND
     1     1     2   ar
     2     1     3   ar
     3     2     4   ar
     4     3     5   ar
     5     4    11   ar
     6     5    11   ar
     7     6     7   ar
     8     6    12   ar
     9     7    13   ar
    10     8    10   ar
    11     8    12   ar
    12     9    10   ar
    13     9    14   ar
    14    10    13   ar
    15    11    16    1
    16    12    17    1
    17    13    23   ar
    18    14    15    1
    19    14    23   ar
    20    15    19   am
    21    15    21    2
    22    16    18    1
    23    17    20    1
    24    18    20    1
    25    19    22    1
    26     1    24    1
    27     2    25    1
    28     3    26    1
    29     4    27    1
    30     5    28    1
    31     6    29    1
    32     7    30    1
    33     8    31    1
    34     9    32    1
    35    16    33    1
    36    16    34    1
    37    17    35    1
    38    17    36    1
    39    18    37    1
    40    18    38    1
    41    19    39    1
    42    20    40    1
    43    20    41    1
    44    22    42    1
