@<TRIPOS>MOLECULE
ChEBML622613
 43 46 0 0 0
SMALL
USER_CHARGES

@<TRIPOS>ATOM
      1 C          -1.9816    0.8732   -3.1715 C.ar    1  LIG1       -0.0432
      2 C          -6.5391   -2.6529   -0.4386 C.3     1  LIG1       -0.0424
      3 C          -1.7592   -0.4433   -2.7836 C.ar    1  LIG1       -0.0462
      4 C         -11.7277   -5.3977    0.6701 C.ar    1  LIG1       -0.0450
      5 C          -5.5540   -2.1330   -1.2667 C.3     1  LIG1       -0.0330
      6 C         -10.3660   -5.1751    0.8424 C.ar    1  LIG1       -0.0209
      7 C          -8.0700   -1.8946    2.8556 C.3     1  LIG1        0.0242
      8 C          -3.1559    1.4816   -2.7585 C.ar    1  LIG1        0.0276
      9 C         -12.1100   -3.0973    1.1375 C.ar    1  LIG1        0.0413
     10 C          -7.3314   -0.7715    3.1735 C.3     1  LIG1        0.1705
     11 C          -6.8273   -2.0373    0.7868 C.3     1  LIG1        0.0889
     12 C         -12.6229   -4.3444    0.8187 C.ar    1  LIG1        0.0739
     13 C          -2.7047   -1.1020   -2.0055 C.ar    1  LIG1        0.0834
     14 C          -7.8146   -2.5325    1.6507 C.3     1  LIG1        0.0532
     15 C          -4.8835   -1.0043   -0.8383 C.3     1  LIG1        0.0962
     16 C          -3.8466   -0.4053   -1.6445 C.ar    1  LIG1        0.1010
     17 C          -6.0908   -0.8850    1.1456 C.3     1  LIG1        0.3099
     18 C          -9.9542   -3.8908    1.1600 C.ar    1  LIG1        0.1216
     19 C         -14.0853   -4.5508    0.6415 C.3     1  LIG1        0.4175
     20 C          -2.4640   -2.5141   -1.5924 C.3     1  LIG1        0.4181
     21 N          -4.0976    0.8741   -2.0022 N.ar    1  LIG1       -0.2539
     22 N         -10.7940   -2.8425    1.3126 N.ar    1  LIG1       -0.2407
     23 N          -5.1264   -0.3765    0.3339 N.3     1  LIG1       -0.1847
     24 N          -6.3941   -0.3160    2.3348 N.3     1  LIG1       -0.1942
     25 N          -8.5748   -3.6819    1.3302 N.pl3   1  LIG1       -0.2987
     26 F         -14.4267   -5.8380    0.3302 F       1  LIG1       -0.1661
     27 F         -14.8227   -4.2498    1.7530 F       1  LIG1       -0.1661
     28 F         -14.6102   -3.7842   -0.3604 F       1  LIG1       -0.1661
     29 F          -1.2820   -3.0250   -2.0489 F       1  LIG1       -0.1660
     30 F          -2.4275   -2.6895   -0.2380 F       1  LIG1       -0.1660
     31 F          -3.4296   -3.3663   -2.0453 F       1  LIG1       -0.1660
     32 H          -1.2576    1.4056   -3.7778 H       1  LIG1        0.0639
     33 H          -7.0713   -3.5410   -0.7700 H       1  LIG1        0.0633
     34 H          -0.8464   -0.9461   -3.0912 H       1  LIG1        0.0630
     35 H         -12.0821   -6.3941    0.4206 H       1  LIG1        0.0631
     36 H          -5.3298   -2.6093   -2.2155 H       1  LIG1        0.0646
     37 H          -9.6603   -5.9917    0.7287 H       1  LIG1        0.0659
     38 H          -8.8285   -2.2591    3.5410 H       1  LIG1        0.0706
     39 H          -3.3775    2.5067   -3.0361 H       1  LIG1        0.0840
     40 H         -12.7599   -2.2373    1.2665 H       1  LIG1        0.0847
     41 H          -7.4590   -0.2088    4.0882 H       1  LIG1        0.1394
     42 H          -5.8697    0.5161    2.6042 H       1  LIG1        0.4551
     43 H          -8.0101   -4.5139    1.1997 H       1  LIG1        0.1543
@<TRIPOS>BOND
     1     1     3   ar
     2     1     8   ar
     3     2     5    1
     4     2    11    1
     5     3    13   ar
     6     4     6   ar
     7     4    12   ar
     8     5    15    1
     9     6    18   ar
    10     7    10    1
    11     7    14    1
    12     8    21   ar
    13     9    12   ar
    14     9    22   ar
    15    10    24    1
    16    11    14    1
    17    11    17    1
    18    12    19    1
    19    13    16   ar
    20    13    20    1
    21    14    25    1
    22    15    16    1
    23    15    23    1
    24    16    21   ar
    25    17    23    1
    26    17    24    1
    27    18    22   ar
    28    18    25    1
    29    19    26    1
    30    19    27    1
    31    19    28    1
    32    20    29    1
    33    20    30    1
    34    20    31    1
    35     1    32    1
    36     2    33    1
    37     3    34    1
    38     4    35    1
    39     5    36    1
    40     6    37    1
    41     7    38    1
    42     8    39    1
    43     9    40    1
    44    10    41    1
    45    24    42    1
    46    25    43    1
