@<TRIPOS>MOLECULE
ChEBML138657
 51 54 0 0 0
SMALL
USER_CHARGES

@<TRIPOS>ATOM
      1 C          -3.0808   -0.6964    0.7847 C.3     1  LIG1        0.0053
      2 C          -4.2403   -0.5556   -1.3222 C.3     1  LIG1        0.0053
      3 C         -10.5149   -5.1894    0.2666 C.ar    1  LIG1       -0.0207
      4 C          -8.7849   -3.3573    0.8660 C.ar    1  LIG1       -0.0361
      5 C         -12.2347   -3.8464    2.0285 C.ar    1  LIG1       -0.0145
      6 C          -1.9058   -0.9374    0.0869 C.3     1  LIG1        0.1687
      7 C          -3.0360   -0.8001   -1.9666 C.3     1  LIG1        0.1687
      8 C         -10.0533   -4.0262    0.9290 C.ar    1  LIG1       -0.0076
      9 C          -4.2581   -0.5040    0.0684 C.3     1  LIG1       -0.0357
     10 C         -11.8111   -5.6621    0.4881 C.ar    1  LIG1        0.1054
     11 C         -12.6602   -4.9960    1.3602 C.ar    1  LIG1        0.1059
     12 C         -10.9273   -3.3725    1.8030 C.ar    1  LIG1        0.0224
     13 C          -8.7269   -2.2438    1.6699 C.ar    1  LIG1        0.0559
     14 C          -7.6409   -1.3391    1.8649 C.2     1  LIG1        0.1694
     15 C          -0.2407   -3.7665   -1.5034 C.3     1  LIG1       -0.0439
     16 C           0.7371   -3.3465   -2.5613 C.3     1  LIG1       -0.0439
     17 C          -0.5974   -2.6677   -2.4609 C.3     1  LIG1        0.0182
     18 C         -11.2949   -7.4085   -1.0414 C.3     1  LIG1        0.0424
     19 C         -14.9499   -4.9596    0.7183 C.3     1  LIG1        0.0424
     20 C          -5.5507   -0.2416    0.7973 C.3     1  LIG1       -0.0201
     21 C          -6.2923   -1.5409    1.1196 C.3     1  LIG1        0.0154
     22 C          -0.6650   -1.2383   -1.9579 C.3     1  LIG1        0.1508
     23 N          -1.9169   -0.9818   -1.2522 N.3     1  LIG1       -0.2048
     24 O          -7.7308   -0.3483    2.6421 O.2     1  LIG1       -0.2935
     25 O         -12.2288   -6.7845   -0.1631 O.3     1  LIG1       -0.3465
     26 O         -13.9256   -5.4568    1.5760 O.3     1  LIG1       -0.3465
     27 S         -10.1873   -1.9846    2.5097 S.2     1  LIG1       -0.0856
     28 H          -3.0720   -0.6622    1.8696 H       1  LIG1        0.0688
     29 H          -5.1467   -0.4086   -1.9009 H       1  LIG1        0.0688
     30 H          -9.8558   -5.7177   -0.4191 H       1  LIG1        0.0658
     31 H          -7.9565   -3.6897    0.2520 H       1  LIG1        0.0642
     32 H         -12.9016   -3.3274    2.7118 H       1  LIG1        0.0663
     33 H          -0.9536   -1.0962    0.5781 H       1  LIG1        0.1394
     34 H          -2.9473   -0.8535   -3.0447 H       1  LIG1        0.1394
     35 H          -0.7360   -4.7220   -1.6253 H       1  LIG1        0.0272
     36 H          -0.0144   -3.5064   -0.4766 H       1  LIG1        0.0272
     37 H           1.6199   -2.8051   -2.2440 H       1  LIG1        0.0272
     38 H           0.8993   -4.0203   -3.3938 H       1  LIG1        0.0272
     39 H          -1.3351   -2.8725   -3.2249 H       1  LIG1        0.0368
     40 H         -11.7536   -8.2904   -1.4953 H       1  LIG1        0.0535
     41 H         -10.4024   -7.6969   -0.4805 H       1  LIG1        0.0535
     42 H         -11.0170   -6.7008   -1.8259 H       1  LIG1        0.0535
     43 H         -15.9078   -5.4056    0.9969 H       1  LIG1        0.0535
     44 H         -14.7092   -5.2058   -0.3189 H       1  LIG1        0.0535
     45 H         -15.0102   -3.8743    0.8287 H       1  LIG1        0.0535
     46 H          -6.1854    0.4180    0.1912 H       1  LIG1        0.0320
     47 H          -5.3432    0.3169    1.7194 H       1  LIG1        0.0320
     48 H          -5.6593   -2.1728    1.7537 H       1  LIG1        0.0354
     49 H          -6.5103   -2.0757    0.1876 H       1  LIG1        0.0354
     50 H          -0.5807   -0.5368   -2.7953 H       1  LIG1        0.1045
     51 H           0.1713   -1.0340   -1.2799 H       1  LIG1        0.1045
@<TRIPOS>BOND
     1     1     6    1
     2     1     9    1
     3     2     7    1
     4     2     9    1
     5     3     8   ar
     6     3    10   ar
     7     4     8   ar
     8     4    13   ar
     9     5    11   ar
    10     5    12   ar
    11     6    23    1
    12     7    23    1
    13     8    12   ar
    14     9    20    1
    15    10    11   ar
    16    10    25    1
    17    11    26    1
    18    12    27   ar
    19    13    14    1
    20    13    27   ar
    21    14    21    1
    22    14    24    2
    23    15    16    1
    24    15    17    1
    25    16    17    1
    26    17    22    1
    27    18    25    1
    28    19    26    1
    29    20    21    1
    30    22    23    1
    31     1    28    1
    32     2    29    1
    33     3    30    1
    34     4    31    1
    35     5    32    1
    36     6    33    1
    37     7    34    1
    38    15    35    1
    39    15    36    1
    40    16    37    1
    41    16    38    1
    42    17    39    1
    43    18    40    1
    44    18    41    1
    45    18    42    1
    46    19    43    1
    47    19    44    1
    48    19    45    1
    49    20    46    1
    50    20    47    1
    51    21    48    1
    52    21    49    1
    53    22    50    1
    54    22    51    1
