@<TRIPOS>MOLECULE
ChEBML296828
 44 46 0 0 0
SMALL
USER_CHARGES

@<TRIPOS>ATOM
      1 C          -1.9925    0.9107   -3.2633 C.ar    1  LIG1       -0.0431
      2 C          -1.8371   -0.4522   -3.0357 C.ar    1  LIG1       -0.0449
      3 C         -10.7892   -4.6532    0.5853 C.ar    1  LIG1       -0.0339
      4 C         -10.7055   -3.0525    2.3931 C.ar    1  LIG1       -0.0339
      5 C         -12.1280   -4.9134    0.8776 C.ar    1  LIG1        0.0170
      6 C         -12.0444   -3.3127    2.6854 C.ar    1  LIG1        0.0170
      7 C          -3.0870    1.5425   -2.6955 C.ar    1  LIG1        0.0291
      8 C          -2.7680   -1.1319   -2.2581 C.ar    1  LIG1        0.0957
      9 C         -10.0779   -3.7229    1.3432 C.ar    1  LIG1        0.0344
     10 C         -12.7557   -4.2431    1.9276 C.ar    1  LIG1        0.2632
     11 C          -3.8278   -0.4087   -1.7350 C.ar    1  LIG1        0.1323
     12 C          -8.1606   -2.2350    1.3661 C.2     1  LIG1        0.3050
     13 C          -4.9501   -0.6531    0.4219 C.3     1  LIG1        0.0288
     14 C          -5.8386   -1.7814   -1.6407 C.3     1  LIG1        0.0288
     15 C          -6.4392   -0.5632    0.7482 C.3     1  LIG1        0.0315
     16 C          -6.6480   -2.6118   -0.6435 C.3     1  LIG1        0.0315
     17 C          -2.5978   -2.5933   -2.0163 C.3     1  LIG1        0.4193
     18 N          -4.0120    0.9156   -1.9343 N.ar    1  LIG1       -0.2408
     19 N          -4.7474   -1.0749   -0.9668 N.pl3   1  LIG1       -0.3122
     20 N          -7.1218   -1.8324    0.5056 N.am    1  LIG1       -0.2824
     21 N          -8.7344   -3.4618    1.0499 N.am    1  LIG1       -0.2690
     22 N         -14.1187   -4.5079    2.2250 N.pl3   1  LIG1        0.1022
     23 O          -8.5290   -1.5574    2.3310 O.2     1  LIG1       -0.2537
     24 O         -14.7403   -5.3484    1.5311 O.2     1  LIG1        0.0314
     25 O         -14.6643   -3.8944    3.1739 O.2     1  LIG1       -0.5803
     26 F          -1.4908   -3.1228   -2.6169 F       1  LIG1       -0.1660
     27 F          -2.4752   -2.9187   -0.6953 F       1  LIG1       -0.1660
     28 F          -3.6511   -3.3287   -2.4779 F       1  LIG1       -0.1660
     29 H          -1.2789    1.4609   -3.8659 H       1  LIG1        0.0639
     30 H          -0.9883   -0.9748   -3.4682 H       1  LIG1        0.0631
     31 H         -10.3102   -5.1813   -0.2353 H       1  LIG1        0.0645
     32 H         -10.1610   -2.3255    2.9903 H       1  LIG1        0.0645
     33 H         -12.6707   -5.6408    0.2790 H       1  LIG1        0.0695
     34 H         -12.5216   -2.7833    3.5065 H       1  LIG1        0.0695
     35 H          -3.2545    2.6043   -2.8433 H       1  LIG1        0.0840
     36 H          -4.4840    0.3221    0.6095 H       1  LIG1        0.0485
     37 H          -4.4634   -1.3815    1.0815 H       1  LIG1        0.0485
     38 H          -5.4383   -2.4429   -2.4182 H       1  LIG1        0.0485
     39 H          -6.4951   -1.0510   -2.1309 H       1  LIG1        0.0485
     40 H          -6.5738   -0.2550    1.7903 H       1  LIG1        0.0486
     41 H          -6.9285    0.1894    0.1178 H       1  LIG1        0.0486
     42 H          -7.5043   -3.0582   -1.1596 H       1  LIG1        0.0486
     43 H          -6.0334   -3.4264   -0.2415 H       1  LIG1        0.0486
     44 H          -8.1958   -4.2227    0.6526 H       1  LIG1        0.1573
@<TRIPOS>BOND
     1     1     2   ar
     2     1     7   ar
     3     2     8   ar
     4     3     5   ar
     5     3     9   ar
     6     4     6   ar
     7     4     9   ar
     8     5    10   ar
     9     6    10   ar
    10     7    18   ar
    11     8    11   ar
    12     8    17    1
    13     9    21    1
    14    10    22    1
    15    11    18   ar
    16    11    19    1
    17    12    20   am
    18    12    21   am
    19    12    23    2
    20    13    15    1
    21    13    19    1
    22    14    16    1
    23    14    19    1
    24    15    20    1
    25    16    20    1
    26    17    26    1
    27    17    27    1
    28    17    28    1
    29    22    24    2
    30    22    25    2
    31     1    29    1
    32     2    30    1
    33     3    31    1
    34     4    32    1
    35     5    33    1
    36     6    34    1
    37     7    35    1
    38    13    36    1
    39    13    37    1
    40    14    38    1
    41    14    39    1
    42    15    40    1
    43    15    41    1
    44    16    42    1
    45    16    43    1
    46    21    44    1
