@<TRIPOS>MOLECULE
ChEBML850112
 46 50 0 0 0
SMALL
USER_CHARGES

@<TRIPOS>ATOM
      1 C         -11.5024   -5.4931    0.5143 C.ar    1  LIG1       -0.0601
      2 C          -3.5286    1.2636   -2.8123 C.ar    1  LIG1       -0.0518
      3 C          -2.5070   -0.8499   -2.2410 C.ar    1  LIG1       -0.0518
      4 C         -12.0848   -5.0663    1.7057 C.ar    1  LIG1       -0.0585
      5 C         -10.3635   -4.8642    0.0034 C.ar    1  LIG1       -0.0401
      6 C          -2.4979    1.5171   -3.7173 C.ar    1  LIG1       -0.0257
      7 C          -1.4764   -0.5964   -3.1460 C.ar    1  LIG1       -0.0257
      8 C          -8.7753   -0.5361    3.5833 C.ar    1  LIG1        0.1180
      9 C         -10.3946   -3.3440    1.9285 C.ar    1  LIG1        0.0265
     10 C          -3.5331    0.0801   -2.0740 C.ar    1  LIG1       -0.0224
     11 C         -11.5432   -3.9939    2.4235 C.ar    1  LIG1       -0.0397
     12 C          -9.5968   -2.2546    2.3778 C.ar    1  LIG1        0.0991
     13 C          -9.8319   -3.7932    0.7311 C.ar    1  LIG1        0.0403
     14 C          -8.5751   -2.0645    1.4545 C.ar    1  LIG1        0.0981
     15 C          -1.4718    0.5871   -3.8842 C.ar    1  LIG1        0.1228
     16 C          -7.6412   -1.0609    1.6432 C.ar    1  LIG1        0.1459
     17 C          -5.8866   -0.2549   -1.5391 C.2     1  LIG1       -0.0634
     18 C          -4.6053   -0.1841   -1.1321 C.2     1  LIG1       -0.0416
     19 C          -7.0520   -0.5378   -0.6290 C.3     1  LIG1        0.0316
     20 C          -4.2593   -0.3787    0.3237 C.3     1  LIG1       -0.0116
     21 C          -5.4574   -0.1218    1.2398 C.3     1  LIG1        0.0173
     22 C         -12.2157   -3.5846    3.6960 C.3     1  LIG1       -0.0390
     23 N          -9.7290   -1.4839    3.4866 N.ar    1  LIG1       -0.2341
     24 N          -7.7514   -0.2803    2.7396 N.ar    1  LIG1       -0.2194
     25 N          -8.7343   -3.0021    0.4686 N.ar    1  LIG1       -0.3097
     26 N          -6.6018   -0.8536    0.7202 N.pl3   1  LIG1       -0.3100
     27 F          -0.4831    0.8296   -4.7546 F       1  LIG1       -0.2069
     28 H         -11.9399   -6.3272   -0.0280 H       1  LIG1        0.0623
     29 H          -4.3217    1.9980   -2.6932 H       1  LIG1        0.0630
     30 H          -2.4965   -1.7771   -1.6729 H       1  LIG1        0.0630
     31 H         -12.9706   -5.5781    2.0741 H       1  LIG1        0.0625
     32 H          -9.9119   -5.1970   -0.9252 H       1  LIG1        0.0642
     33 H          -2.4942    2.4383   -4.2922 H       1  LIG1        0.0653
     34 H          -0.6776   -1.3206   -3.2765 H       1  LIG1        0.0653
     35 H          -8.8382    0.1078    4.4539 H       1  LIG1        0.1063
     36 H          -6.1293   -0.1069   -2.5893 H       1  LIG1        0.0595
     37 H          -7.7082    0.3419   -0.6245 H       1  LIG1        0.0513
     38 H          -7.6197   -1.3820   -1.0386 H       1  LIG1        0.0513
     39 H          -3.8968   -1.4052    0.4635 H       1  LIG1        0.0332
     40 H          -3.4462    0.2963    0.6174 H       1  LIG1        0.0332
     41 H          -5.1994   -0.4506    2.2545 H       1  LIG1        0.0472
     42 H          -5.6831    0.9517    1.2881 H       1  LIG1        0.0472
     43 H         -11.7889   -4.1341    4.5416 H       1  LIG1        0.0280
     44 H         -12.0948   -2.5105    3.8770 H       1  LIG1        0.0280
     45 H         -13.2926   -3.7844    3.6538 H       1  LIG1        0.0280
     46 H          -8.1332   -3.1026   -0.3377 H       1  LIG1        0.1530
@<TRIPOS>BOND
     1     1     4   ar
     2     1     5   ar
     3     2     6   ar
     4     2    10   ar
     5     3     7   ar
     6     3    10   ar
     7     4    11   ar
     8     5    13   ar
     9     6    15   ar
    10     7    15   ar
    11     8    23   ar
    12     8    24   ar
    13     9    11   ar
    14     9    12   ar
    15     9    13   ar
    16    10    18    1
    17    11    22    1
    18    12    14   ar
    19    12    23   ar
    20    13    25   ar
    21    14    16   ar
    22    14    25   ar
    23    15    27    1
    24    16    24   ar
    25    16    26    1
    26    17    18    2
    27    17    19    1
    28    18    20    1
    29    19    26    1
    30    20    21    1
    31    21    26    1
    32     1    28    1
    33     2    29    1
    34     3    30    1
    35     4    31    1
    36     5    32    1
    37     6    33    1
    38     7    34    1
    39     8    35    1
    40    17    36    1
    41    19    37    1
    42    19    38    1
    43    20    39    1
    44    20    40    1
    45    21    41    1
    46    21    42    1
    47    22    43    1
    48    22    44    1
    49    22    45    1
    50    25    46    1
