@<TRIPOS>MOLECULE
ChEBML101775
 29 30 0 0 0
SMALL
USER_CHARGES

@<TRIPOS>ATOM
      1 C         -10.3358   -4.9825    0.2098 C.ar    1  LIG1       -0.0383
      2 C         -11.6965   -5.2886    0.3039 C.ar    1  LIG1       -0.0388
      3 C         -12.0788   -3.3988    1.7802 C.ar    1  LIG1       -0.0312
      4 C         -10.7108   -3.0706    1.7005 C.ar    1  LIG1        0.0020
      5 C          -9.9031   -2.0439    2.2648 C.ar    1  LIG1       -0.0251
      6 C          -9.8726   -3.8684    0.9188 C.ar    1  LIG1        0.0378
      7 C         -12.5563   -4.5104    1.0764 C.ar    1  LIG1        0.0332
      8 C          -8.6141   -2.2349    1.8231 C.ar    1  LIG1        0.0075
      9 C         -14.5755   -5.9029    0.5217 C.2     1  LIG1        0.2128
     10 C         -10.3642   -0.9655    3.1641 C.3     1  LIG1       -0.0376
     11 C          -7.3754   -1.4785    2.0897 C.3     1  LIG1       -0.0262
     12 C         -16.0464   -5.9153    0.8547 C.3     1  LIG1        0.0130
     13 N          -8.6057   -3.3376    1.0117 N.ar    1  LIG1       -0.3178
     14 N         -13.9107   -4.8410    1.1481 N.am    1  LIG1       -0.2856
     15 O         -14.0911   -6.7563   -0.2146 O.2     1  LIG1       -0.2776
     16 H          -9.6675   -5.5890   -0.3921 H       1  LIG1        0.0643
     17 H         -12.0774   -6.1514   -0.2387 H       1  LIG1        0.0643
     18 H         -12.7531   -2.7944    2.3816 H       1  LIG1        0.0649
     19 H         -10.2967   -1.2747    4.2193 H       1  LIG1        0.0280
     20 H          -9.7679   -0.0458    3.0441 H       1  LIG1        0.0280
     21 H         -11.4104   -0.6806    2.9628 H       1  LIG1        0.0280
     22 H          -6.8514   -1.8731    2.9758 H       1  LIG1        0.0293
     23 H          -6.6734   -1.5202    1.2393 H       1  LIG1        0.0293
     24 H          -7.5744   -0.4075    2.2677 H       1  LIG1        0.0293
     25 H         -16.5969   -5.3190    0.1216 H       1  LIG1        0.0328
     26 H         -16.2043   -5.4884    1.8492 H       1  LIG1        0.0328
     27 H         -16.4221   -6.9427    0.8476 H       1  LIG1        0.0328
     28 H          -7.7899   -3.7112    0.5463 H       1  LIG1        0.1525
     29 H         -14.4970   -4.2340    1.7321 H       1  LIG1        0.1556
@<TRIPOS>BOND
     1     1     2   ar
     2     1     6   ar
     3     2     7   ar
     4     3     4   ar
     5     3     7   ar
     6     4     5   ar
     7     4     6   ar
     8     5     8   ar
     9     5    10    1
    10     6    13   ar
    11     7    14    1
    12     8    11    1
    13     8    13   ar
    14     9    12    1
    15     9    14   am
    16     9    15    2
    17     1    16    1
    18     2    17    1
    19     3    18    1
    20    10    19    1
    21    10    20    1
    22    10    21    1
    23    11    22    1
    24    11    23    1
    25    11    24    1
    26    12    25    1
    27    12    26    1
    28    12    27    1
    29    13    28    1
    30    14    29    1
