@<TRIPOS>MOLECULE
ChEBML52550
 53 56 0 0 0
SMALL
USER_CHARGES

@<TRIPOS>ATOM
      1 C          -2.3371    1.0068   -3.4502 C.ar    1  LIG1       -0.0418
      2 C         -12.0973   -3.4895    1.9448 C.ar    1  LIG1       -0.0504
      3 C          -1.8031   -0.2167   -3.0686 C.ar    1  LIG1       -0.0360
      4 C         -12.5804   -4.6367    1.3893 C.ar    1  LIG1       -0.0313
      5 C          -9.9718   -2.0373    2.1910 C.ar    1  LIG1       -0.0262
      6 C         -10.4222   -5.1315    0.4348 C.ar    1  LIG1       -0.0100
      7 C          -3.4834    1.4670   -2.8346 C.ar    1  LIG1        0.0292
      8 C         -10.7545   -3.1334    1.7567 C.ar    1  LIG1       -0.0020
      9 C          -9.9109   -3.9647    0.9933 C.ar    1  LIG1        0.0404
     10 C          -2.4483   -0.9380   -2.0728 C.ar    1  LIG1        0.0672
     11 C         -11.7493   -5.4631    0.6332 C.ar    1  LIG1        0.0732
     12 C          -8.7136   -2.2084    1.7063 C.ar    1  LIG1        0.0947
     13 C          -3.6078   -0.4111   -1.4985 C.ar    1  LIG1        0.1412
     14 C          -7.5848   -1.2936    1.9242 C.2     1  LIG1        0.2599
     15 C          -4.4557   -0.2012    0.6240 C.3     1  LIG1        0.0288
     16 C          -5.6019   -1.4459   -1.0287 C.3     1  LIG1        0.0288
     17 C          -5.1614   -0.9288    1.7729 C.3     1  LIG1        0.0303
     18 C          -6.3833   -2.2556    0.0112 C.3     1  LIG1        0.0303
     19 C           0.4943   -2.2252   -1.7790 C.3     1  LIG1       -0.0470
     20 C          -0.8444   -4.2990   -2.1657 C.3     1  LIG1       -0.0470
     21 C          -0.8104   -2.7810   -2.3532 C.3     1  LIG1        0.0142
     22 N          -4.0780    0.7614   -1.8900 N.ar    1  LIG1       -0.2394
     23 N          -8.6671   -3.3783    0.9701 N.ar    1  LIG1       -0.3100
     24 N          -4.2707   -1.1237   -0.5021 N.pl3   1  LIG1       -0.3112
     25 N          -6.4254   -1.4844    1.2639 N.am    1  LIG1       -0.2936
     26 N          -1.9476   -2.1770   -1.6548 N.pl3   1  LIG1       -0.3393
     27 O          -7.6966   -0.3637    2.7009 O.2     1  LIG1       -0.2701
     28 O         -12.2478   -6.6029    0.0880 O.3     1  LIG1       -0.3608
     29 H          -1.8597    1.5932   -4.2213 H       1  LIG1        0.0639
     30 H         -12.7480   -2.8560    2.5293 H       1  LIG1        0.0630
     31 H          -0.9069   -0.5981   -3.5350 H       1  LIG1        0.0644
     32 H         -13.6153   -4.9082    1.5361 H       1  LIG1        0.0650
     33 H         -10.3131   -1.2126    2.7993 H       1  LIG1        0.0651
     34 H          -9.7843   -5.7763   -0.1514 H       1  LIG1        0.0670
     35 H          -3.9002    2.4186   -3.1298 H       1  LIG1        0.0840
     36 H          -3.4837    0.1566    0.9635 H       1  LIG1        0.0485
     37 H          -5.0624    0.6457    0.3035 H       1  LIG1        0.0485
     38 H          -6.1386   -0.5230   -1.2482 H       1  LIG1        0.0485
     39 H          -5.4989   -2.0316   -1.9422 H       1  LIG1        0.0485
     40 H          -4.5275   -1.7356    2.1408 H       1  LIG1        0.0486
     41 H          -5.3679   -0.2263    2.5803 H       1  LIG1        0.0486
     42 H          -5.8848   -3.2094    0.1839 H       1  LIG1        0.0486
     43 H          -7.3979   -2.4305   -0.3466 H       1  LIG1        0.0486
     44 H           1.3406   -2.6745   -2.2987 H       1  LIG1        0.0249
     45 H           0.5186   -1.1436   -1.9127 H       1  LIG1        0.0249
     46 H           0.5534   -2.4614   -0.7165 H       1  LIG1        0.0249
     47 H          -0.7853   -4.5352   -1.1033 H       1  LIG1        0.0249
     48 H          -1.7738   -4.6949   -2.5748 H       1  LIG1        0.0249
     49 H           0.0019   -4.7483   -2.6854 H       1  LIG1        0.0249
     50 H          -0.8694   -2.5446   -3.4157 H       1  LIG1        0.0497
     51 H          -7.8858   -3.7285    0.5142 H       1  LIG1        0.1529
     52 H          -2.3539   -2.6355   -0.9026 H       1  LIG1        0.1469
     53 H         -12.5818   -6.3703   -0.7892 H       1  LIG1        0.2182
@<TRIPOS>BOND
     1     1     3   ar
     2     1     7   ar
     3     2     4   ar
     4     2     8   ar
     5     3    10   ar
     6     4    11   ar
     7     5     8   ar
     8     5    12   ar
     9     6     9   ar
    10     6    11   ar
    11     7    22   ar
    12     8     9   ar
    13     9    23   ar
    14    10    13   ar
    15    10    26    1
    16    11    28    1
    17    12    14    1
    18    12    23   ar
    19    13    22   ar
    20    13    24    1
    21    14    25   am
    22    14    27    2
    23    15    17    1
    24    15    24    1
    25    16    18    1
    26    16    24    1
    27    17    25    1
    28    18    25    1
    29    19    21    1
    30    20    21    1
    31    21    26    1
    32     1    29    1
    33     2    30    1
    34     3    31    1
    35     4    32    1
    36     5    33    1
    37     6    34    1
    38     7    35    1
    39    15    36    1
    40    15    37    1
    41    16    38    1
    42    16    39    1
    43    17    40    1
    44    17    41    1
    45    18    42    1
    46    18    43    1
    47    19    44    1
    48    19    45    1
    49    19    46    1
    50    20    47    1
    51    20    48    1
    52    20    49    1
    53    21    50    1
    54    23    51    1
    55    26    52    1
    56    28    53    1
