@<TRIPOS>MOLECULE
ChEBML219925
 65 68 0 0 0
SMALL
USER_CHARGES

@<TRIPOS>ATOM
      1 C          -6.2734    4.0903   -2.3310 C.ar    1  LIG1       -0.0433
      2 C          -6.2759    3.2817   -3.4622 C.ar    1  LIG1       -0.0517
      3 C         -10.2456   -5.3151    0.9147 C.ar    1  LIG1       -0.0383
      4 C         -11.5957   -5.6610    1.0215 C.ar    1  LIG1       -0.0377
      5 C         -12.1624   -3.4368    1.8148 C.ar    1  LIG1       -0.0304
      6 C         -10.0854   -1.8673    1.9786 C.ar    1  LIG1       -0.0261
      7 C          -5.6356    3.6159   -1.1961 C.ar    1  LIG1        0.0291
      8 C         -10.8069   -3.0653    1.7154 C.ar    1  LIG1       -0.0003
      9 C          -5.6494    2.0410   -3.4244 C.ar    1  LIG1        0.0180
     10 C          -9.8816   -4.0111    1.2686 C.ar    1  LIG1        0.0379
     11 C         -12.5410   -4.7379    1.4643 C.ar    1  LIG1        0.0437
     12 C          -8.7608   -2.1046    1.6921 C.ar    1  LIG1        0.0947
     13 C          -5.0394    1.6585   -2.2406 C.ar    1  LIG1        0.1256
     14 C          -7.6517   -1.2025    1.7999 C.2     1  LIG1        0.2598
     15 C          -6.2806   -1.0190   -1.5138 C.3     1  LIG1       -0.0185
     16 C          -4.6299   -0.1179    0.1796 C.3     1  LIG1       -0.0185
     17 C          -6.8022   -1.9764   -0.4432 C.3     1  LIG1        0.0162
     18 C          -5.2082   -1.0846    1.2142 C.3     1  LIG1        0.0162
     19 C          -4.8237   -0.6115   -1.2602 C.3     1  LIG1        0.0270
     20 C          -2.0481   -0.1788   -2.3343 C.3     1  LIG1       -0.0494
     21 C          -6.8839    0.6256   -6.5648 C.3     1  LIG1        0.0360
     22 C         -15.1508   -3.6928   -0.3450 C.3     1  LIG1        0.0225
     23 C          -5.6542    1.1770   -4.6395 C.3     1  LIG1        0.0747
     24 C          -3.2939    0.1163   -3.0983 C.3     1  LIG1        0.0103
     25 N          -5.0163    2.4165   -1.1215 N.ar    1  LIG1       -0.2410
     26 N          -8.6478   -3.4003    1.2643 N.ar    1  LIG1       -0.3101
     27 N          -6.5997   -1.4114    0.8979 N.am    1  LIG1       -0.2966
     28 N         -13.9135   -5.1223    1.5623 N.pl3   1  LIG1       -0.2633
     29 N          -4.4069    0.4112   -2.1984 N.pl3   1  LIG1       -0.3126
     30 O          -7.6548   -0.3085    2.6445 O.2     1  LIG1       -0.2702
     31 O         -13.8792   -5.8939   -0.8976 O.2     1  LIG1       -0.4814
     32 O         -16.0524   -6.0439    0.3674 O.2     1  LIG1       -0.4814
     33 O          -6.8340    1.4281   -5.3935 O.3     1  LIG1       -0.3798
     34 S         -14.7929   -5.3765    0.1039 S.O2    1  LIG1       -0.1957
     35 H          -6.7550    5.0613   -2.3379 H       1  LIG1        0.0639
     36 H          -6.7681    3.6270   -4.3671 H       1  LIG1        0.0628
     37 H          -9.5104   -6.0344    0.5698 H       1  LIG1        0.0643
     38 H         -11.9011   -6.6698    0.7518 H       1  LIG1        0.0643
     39 H         -12.9019   -2.7191    2.1599 H       1  LIG1        0.0650
     40 H         -10.4960   -0.9334    2.3393 H       1  LIG1        0.0651
     41 H          -5.6058    4.2075   -0.2870 H       1  LIG1        0.0840
     42 H          -6.3833   -1.4825   -2.5021 H       1  LIG1        0.0302
     43 H          -6.9032   -0.1151   -1.5132 H       1  LIG1        0.0302
     44 H          -5.1365    0.8503    0.2855 H       1  LIG1        0.0302
     45 H          -3.5671    0.0509    0.3900 H       1  LIG1        0.0302
     46 H          -7.8572   -2.1881   -0.6353 H       1  LIG1        0.0470
     47 H          -6.2743   -2.9361   -0.4776 H       1  LIG1        0.0470
     48 H          -4.6444   -2.0245    1.2276 H       1  LIG1        0.0470
     49 H          -5.1292   -0.6442    2.2131 H       1  LIG1        0.0470
     50 H          -4.1825   -1.4857   -1.4217 H       1  LIG1        0.0506
     51 H          -1.7561    0.6777   -1.7170 H       1  LIG1        0.0246
     52 H          -2.1823   -1.0569   -1.6932 H       1  LIG1        0.0246
     53 H          -1.2271   -0.3895   -3.0300 H       1  LIG1        0.0246
     54 H          -7.8004    0.8437   -7.1182 H       1  LIG1        0.0530
     55 H          -6.8570   -0.4306   -6.2853 H       1  LIG1        0.0530
     56 H          -6.0190    0.8568   -7.1912 H       1  LIG1        0.0530
     57 H         -15.7200   -3.6981   -1.2759 H       1  LIG1        0.0442
     58 H         -15.7345   -3.2392    0.4575 H       1  LIG1        0.0442
     59 H         -14.2061   -3.1635   -0.4774 H       1  LIG1        0.0442
     60 H          -4.7818    1.3762   -5.2770 H       1  LIG1        0.0619
     61 H          -5.6278    0.1122   -4.3700 H       1  LIG1        0.0619
     62 H          -3.5797   -0.7429   -3.7124 H       1  LIG1        0.0466
     63 H          -3.1533    0.9839   -3.7497 H       1  LIG1        0.0466
     64 H          -7.7851   -3.8472    0.9853 H       1  LIG1        0.1529
     65 H         -14.4396   -4.6290    2.3021 H       1  LIG1        0.1702
@<TRIPOS>BOND
     1     1     2   ar
     2     1     7   ar
     3     2     9   ar
     4     3     4   ar
     5     3    10   ar
     6     4    11   ar
     7     5     8   ar
     8     5    11   ar
     9     6     8   ar
    10     6    12   ar
    11     7    25   ar
    12     8    10   ar
    13     9    13   ar
    14     9    23    1
    15    10    26   ar
    16    11    28    1
    17    12    14    1
    18    12    26   ar
    19    13    25   ar
    20    13    29    1
    21    14    27   am
    22    14    30    2
    23    15    17    1
    24    15    19    1
    25    16    18    1
    26    16    19    1
    27    17    27    1
    28    18    27    1
    29    19    29    1
    30    20    24    1
    31    21    33    1
    32    22    34    1
    33    23    33    1
    34    24    29    1
    35    28    34    1
    36    31    34    2
    37    32    34    2
    38     1    35    1
    39     2    36    1
    40     3    37    1
    41     4    38    1
    42     5    39    1
    43     6    40    1
    44     7    41    1
    45    15    42    1
    46    15    43    1
    47    16    44    1
    48    16    45    1
    49    17    46    1
    50    17    47    1
    51    18    48    1
    52    18    49    1
    53    19    50    1
    54    20    51    1
    55    20    52    1
    56    20    53    1
    57    21    54    1
    58    21    55    1
    59    21    56    1
    60    22    57    1
    61    22    58    1
    62    22    59    1
    63    23    60    1
    64    23    61    1
    65    24    62    1
    66    24    63    1
    67    26    64    1
    68    28    65    1
