@<TRIPOS>MOLECULE
ChEBML771353
 42 46 0 0 0
SMALL
USER_CHARGES

@<TRIPOS>ATOM
      1 C          -2.4115   -0.2990   -1.9445 C.ar    1  LIG1       -0.0619
      2 C          -3.5777   -0.1198   -2.6855 C.ar    1  LIG1       -0.0619
      3 C          -2.4806   -0.8037   -0.6468 C.ar    1  LIG1       -0.0586
      4 C          -4.8149   -0.4472   -2.1303 C.ar    1  LIG1       -0.0572
      5 C         -11.6273   -5.4351    0.5766 C.ar    1  LIG1       -0.0574
      6 C         -10.3154   -5.0562    0.2784 C.ar    1  LIG1       -0.0398
      7 C         -11.8864   -3.5551    2.0907 C.ar    1  LIG1       -0.0479
      8 C          -8.9680   -0.2321    3.2757 C.ar    1  LIG1        0.1180
      9 C         -10.5658   -3.1531    1.8060 C.ar    1  LIG1        0.0239
     10 C          -3.7209   -1.1183   -0.0802 C.ar    1  LIG1       -0.0416
     11 C          -4.8968   -0.9426   -0.8220 C.ar    1  LIG1       -0.0274
     12 C         -12.4025   -4.6976    1.4687 C.ar    1  LIG1       -0.0503
     13 C          -9.7375   -2.0800    2.2390 C.ar    1  LIG1        0.0988
     14 C          -9.8114   -3.9117    0.9073 C.ar    1  LIG1        0.0400
     15 C          -8.5083   -2.2056    1.6017 C.ar    1  LIG1        0.0981
     16 C          -7.5008   -1.2873    1.8406 C.ar    1  LIG1        0.1459
     17 C          -3.8252   -1.6857    1.3031 C.3     1  LIG1       -0.0116
     18 C          -6.2334   -1.3516   -0.2496 C.3     1  LIG1        0.0383
     19 C          -5.0689   -1.1452    2.0053 C.3     1  LIG1        0.0173
     20 C         -13.8003   -5.1288    1.7659 C.3     1  LIG1       -0.0397
     21 N         -10.0075   -1.0738    3.1083 N.ar    1  LIG1       -0.2341
     22 N          -7.7454   -0.2766    2.7020 N.ar    1  LIG1       -0.2194
     23 N          -8.5729   -3.3163    0.8026 N.ar    1  LIG1       -0.3097
     24 N          -6.2821   -1.3952    1.2209 N.pl3   1  LIG1       -0.3094
     25 H          -1.4480   -0.0511   -2.3803 H       1  LIG1        0.0623
     26 H          -3.5232    0.2672   -3.6989 H       1  LIG1        0.0623
     27 H          -1.5636   -0.9484   -0.0818 H       1  LIG1        0.0625
     28 H          -5.7148   -0.3185   -2.7264 H       1  LIG1        0.0626
     29 H         -12.0394   -6.3213    0.0991 H       1  LIG1        0.0626
     30 H          -9.7127   -5.6315   -0.4165 H       1  LIG1        0.0643
     31 H         -12.4952   -2.9830    2.7859 H       1  LIG1        0.0633
     32 H          -9.1342    0.5907    3.9625 H       1  LIG1        0.1063
     33 H          -3.8699   -2.7793    1.2332 H       1  LIG1        0.0332
     34 H          -2.9405   -1.4249    1.8953 H       1  LIG1        0.0332
     35 H          -6.9891   -0.6400   -0.6081 H       1  LIG1        0.0520
     36 H          -6.4935   -2.3427   -0.6411 H       1  LIG1        0.0520
     37 H          -5.1517   -1.6235    2.9893 H       1  LIG1        0.0472
     38 H          -4.9685   -0.0649    2.1733 H       1  LIG1        0.0472
     39 H         -13.8128   -5.8176    2.6190 H       1  LIG1        0.0280
     40 H         -14.4395   -4.2690    2.0023 H       1  LIG1        0.0280
     41 H         -14.2520   -5.6340    0.9028 H       1  LIG1        0.0280
     42 H          -7.8205   -3.6538    0.2182 H       1  LIG1        0.1530
@<TRIPOS>BOND
     1     1     2   ar
     2     1     3   ar
     3     2     4   ar
     4     3    10   ar
     5     4    11   ar
     6     5     6   ar
     7     5    12   ar
     8     6    14   ar
     9     7     9   ar
    10     7    12   ar
    11     8    21   ar
    12     8    22   ar
    13     9    13   ar
    14     9    14   ar
    15    10    11   ar
    16    10    17    1
    17    11    18    1
    18    12    20    1
    19    13    15   ar
    20    13    21   ar
    21    14    23   ar
    22    15    16   ar
    23    15    23   ar
    24    16    22   ar
    25    16    24    1
    26    17    19    1
    27    18    24    1
    28    19    24    1
    29     1    25    1
    30     2    26    1
    31     3    27    1
    32     4    28    1
    33     5    29    1
    34     6    30    1
    35     7    31    1
    36     8    32    1
    37    17    33    1
    38    17    34    1
    39    18    35    1
    40    18    36    1
    41    19    37    1
    42    19    38    1
    43    20    39    1
    44    20    40    1
    45    20    41    1
    46    23    42    1
