@<TRIPOS>MOLECULE
ChEBML903000
 35 38 0 0 0
SMALL
USER_CHARGES

@<TRIPOS>ATOM
      1 C         -12.8416   -4.1763    1.5578 C.ar    1  LIG1       -0.0614
      2 C         -12.0823   -5.2211    1.0254 C.ar    1  LIG1       -0.0596
      3 C          -3.2918    1.3428   -2.9735 C.ar    1  LIG1       -0.0543
      4 C         -12.2375   -2.9807    1.9700 C.ar    1  LIG1       -0.0500
      5 C         -10.6957   -5.1116    0.8848 C.ar    1  LIG1       -0.0305
      6 C          -4.1202    0.7305   -1.9892 C.ar    1  LIG1       -0.0441
      7 C          -2.1122    0.6556   -3.1573 C.ar    1  LIG1       -0.0240
      8 C         -10.8440   -2.8475    1.8383 C.ar    1  LIG1        0.0339
      9 C          -9.8855   -1.8416    2.1244 C.ar    1  LIG1        0.1086
     10 C         -10.1211   -3.9122    1.3023 C.ar    1  LIG1        0.0918
     11 C          -8.6537   -2.3552    1.7474 C.ar    1  LIG1        0.1407
     12 C          -3.5422   -0.4017   -1.4583 C.ar    1  LIG1        0.0556
     13 C          -7.4946   -1.6225    1.8936 C.ar    1  LIG1        0.1317
     14 C          -8.8395    0.0462    2.7623 C.ar    1  LIG1        0.1270
     15 C          -4.0774   -1.3241   -0.4120 C.2     1  LIG1        0.1793
     16 C          -8.9091    1.4219    3.3387 C.3     1  LIG1       -0.0042
     17 C          -5.4402   -1.0199    0.1820 C.3     1  LIG1        0.0638
     18 N         -10.0207   -0.6015    2.6539 N.ar    1  LIG1       -0.2302
     19 N          -7.6006   -0.3818    2.4194 N.ar    1  LIG1       -0.2240
     20 O          -3.3992   -2.2929   -0.0780 O.2     1  LIG1       -0.2925
     21 O          -8.7904   -3.6110    1.2480 O.2     1  LIG1       -0.3046
     22 S          -2.0070   -0.7221   -2.1456 S.2     1  LIG1       -0.0943
     23 S          -5.9194   -2.2506    1.4196 S.3     1  LIG1       -0.0953
     24 H         -13.9182   -4.2910    1.6554 H       1  LIG1        0.0623
     25 H         -12.5781   -6.1371    0.7141 H       1  LIG1        0.0623
     26 H          -3.5476    2.2424   -3.5182 H       1  LIG1        0.0628
     27 H         -12.8406   -2.1772    2.3822 H       1  LIG1        0.0631
     28 H         -10.1008   -5.9185    0.4733 H       1  LIG1        0.0650
     29 H          -5.0908    1.1059   -1.6898 H       1  LIG1        0.0636
     30 H          -1.3069    0.8973   -3.8367 H       1  LIG1        0.0701
     31 H          -8.8000    1.3833    4.4287 H       1  LIG1        0.0312
     32 H          -8.1179    2.0632    2.9308 H       1  LIG1        0.0312
     33 H          -9.8653    1.9040    3.0999 H       1  LIG1        0.0312
     34 H          -6.1934   -1.0254   -0.6107 H       1  LIG1        0.0470
     35 H          -5.4161   -0.0450    0.6765 H       1  LIG1        0.0470
@<TRIPOS>BOND
     1     1     2   ar
     2     1     4   ar
     3     2     5   ar
     4     3     6   ar
     5     3     7   ar
     6     4     8   ar
     7     5    10   ar
     8     6    12   ar
     9     7    22   ar
    10     8     9   ar
    11     8    10   ar
    12     9    11   ar
    13     9    18   ar
    14    10    21   ar
    15    11    13   ar
    16    11    21   ar
    17    12    15    1
    18    12    22   ar
    19    13    19   ar
    20    13    23    1
    21    14    16    1
    22    14    18   ar
    23    14    19   ar
    24    15    17    1
    25    15    20    2
    26    17    23    1
    27     1    24    1
    28     2    25    1
    29     3    26    1
    30     4    27    1
    31     5    28    1
    32     6    29    1
    33     7    30    1
    34    16    31    1
    35    16    32    1
    36    16    33    1
    37    17    34    1
    38    17    35    1
