@<TRIPOS>MOLECULE
ChEBML212672
 36 38 0 0 0
SMALL
USER_CHARGES

@<TRIPOS>ATOM
      1 C         -12.4152   -4.7244    1.1252 C.ar    1  LIG1       -0.0600
      2 C         -12.0690   -3.4029    1.4299 C.ar    1  LIG1       -0.0529
      3 C         -11.4316   -5.6855    0.9001 C.ar    1  LIG1       -0.0416
      4 C         -10.0110   -1.8401    1.7853 C.ar    1  LIG1       -0.0262
      5 C         -10.7071   -3.0497    1.5076 C.ar    1  LIG1       -0.0007
      6 C          -9.7433   -4.0336    1.2772 C.ar    1  LIG1        0.0567
      7 C         -10.0745   -5.3584    0.9716 C.ar    1  LIG1        0.0625
      8 C          -8.6631   -2.1081    1.7197 C.ar    1  LIG1        0.0947
      9 C          -7.5658   -1.2085    1.9250 C.2     1  LIG1        0.2602
     10 C          -6.4039   -2.1587   -0.1001 C.3     1  LIG1        0.0539
     11 C          -5.0607   -1.1568    1.7018 C.3     1  LIG1        0.0539
     12 C          -5.6937   -1.3033   -1.1391 C.3     1  LIG1       -0.0183
     13 C          -4.3187   -0.2889    0.6946 C.3     1  LIG1       -0.0183
     14 C          -3.5035   -0.2234   -1.6653 C.3     1  LIG1       -0.0453
     15 N          -8.5116   -3.4337    1.4123 N.ar    1  LIG1       -0.3089
     16 N          -6.3960   -1.4942    1.2094 N.am    1  LIG1       -0.2863
     17 N          -4.2967   -0.9913   -0.6456 N.4     1  LIG1        0.2462
     18 O          -7.6774   -0.2522    2.6901 O.2     1  LIG1       -0.2701
     19 CL         -8.8718   -6.5517    0.6910 Cl      1  LIG1       -0.0822
     20 H         -13.4642   -5.0015    1.0634 H       1  LIG1        0.0623
     21 H         -12.8462   -2.6641    1.6030 H       1  LIG1        0.0629
     22 H         -11.7380   -6.7026    0.6646 H       1  LIG1        0.0639
     23 H         -10.4538   -0.8783    2.0077 H       1  LIG1        0.0651
     24 H          -7.4205   -2.3710   -0.4397 H       1  LIG1        0.0525
     25 H          -5.8951   -3.1227    0.0214 H       1  LIG1        0.0525
     26 H          -4.5254   -2.0985    1.8717 H       1  LIG1        0.0525
     27 H          -5.1203   -0.6364    2.6627 H       1  LIG1        0.0525
     28 H          -5.5963   -1.8401   -2.0881 H       1  LIG1        0.0831
     29 H          -6.2056   -0.3481   -1.3009 H       1  LIG1        0.0831
     30 H          -4.8132    0.6781    0.5488 H       1  LIG1        0.0831
     31 H          -3.2802   -0.1328    1.0033 H       1  LIG1        0.0831
     32 H          -4.0013    0.7352   -1.8228 H       1  LIG1        0.0777
     33 H          -2.4965   -0.0823   -1.2681 H       1  LIG1        0.0777
     34 H          -3.4838   -0.8111   -2.5851 H       1  LIG1        0.0777
     35 H          -7.6254   -3.9063    1.2974 H       1  LIG1        0.1530
     36 H          -3.8110   -1.8891   -0.5127 H       1  LIG1        0.2001
@<TRIPOS>BOND
     1     1     2   ar
     2     1     3   ar
     3     2     5   ar
     4     3     7   ar
     5     4     5   ar
     6     4     8   ar
     7     5     6   ar
     8     6     7   ar
     9     6    15   ar
    10     7    19    1
    11     8     9    1
    12     8    15   ar
    13     9    16   am
    14     9    18    2
    15    10    12    1
    16    10    16    1
    17    11    13    1
    18    11    16    1
    19    12    17    1
    20    13    17    1
    21    14    17    1
    22     1    20    1
    23     2    21    1
    24     3    22    1
    25     4    23    1
    26    10    24    1
    27    10    25    1
    28    11    26    1
    29    11    27    1
    30    12    28    1
    31    12    29    1
    32    13    30    1
    33    13    31    1
    34    14    32    1
    35    14    33    1
    36    14    34    1
    37    15    35    1
    38    17    36    1
