@<TRIPOS>MOLECULE
ChEBML512826
 42 44 0 0 0
SMALL
USER_CHARGES

@<TRIPOS>ATOM
      1 C          -1.9245    0.3007   -3.6814 C.ar    1  LIG1       -0.0622
      2 C         -11.5187   -5.5303    0.4272 C.ar    1  LIG1       -0.0615
      3 C          -2.9782    1.2136   -3.6387 C.ar    1  LIG1       -0.0620
      4 C          -1.8019   -0.6699   -2.6871 C.ar    1  LIG1       -0.0620
      5 C         -12.4373   -4.4933    0.5782 C.ar    1  LIG1       -0.0603
      6 C         -10.1575   -5.3236    0.6784 C.ar    1  LIG1       -0.0530
      7 C          -3.9093    1.1560   -2.6016 C.ar    1  LIG1       -0.0590
      8 C          -2.7328   -0.7275   -1.6500 C.ar    1  LIG1       -0.0590
      9 C         -12.0269   -3.2202    0.9837 C.ar    1  LIG1       -0.0400
     10 C          -8.4520   -3.4946    1.4203 C.ar    1  LIG1       -0.0260
     11 C          -9.7200   -4.0484    1.0881 C.ar    1  LIG1       -0.0020
     12 C          -3.7866    0.1855   -1.6072 C.ar    1  LIG1       -0.0479
     13 C         -10.6629   -3.0282    1.2311 C.ar    1  LIG1        0.0402
     14 C          -8.6459   -2.1735    1.7519 C.ar    1  LIG1        0.0968
     15 C          -7.6543   -1.2221    2.1516 C.2     1  LIG1        0.2574
     16 C         -10.5930   -0.6145    1.8984 C.3     1  LIG1        0.0054
     17 C          -4.7924    0.1228   -0.4855 C.3     1  LIG1       -0.0264
     18 C          -4.2193   -0.4117    0.8336 C.3     1  LIG1       -0.0335
     19 C          -5.2358   -0.5157    1.9690 C.3     1  LIG1        0.0117
     20 N          -9.9826   -1.9015    1.6350 N.ar    1  LIG1       -0.2991
     21 N          -6.3484   -1.3785    1.6424 N.am    1  LIG1       -0.3103
     22 O          -7.9260   -0.2881    2.9457 O.2     1  LIG1       -0.2704
     23 H          -1.2005    0.3448   -4.4898 H       1  LIG1        0.0622
     24 H         -11.8616   -6.5120    0.1112 H       1  LIG1        0.0623
     25 H          -3.0746    1.9687   -4.4134 H       1  LIG1        0.0623
     26 H          -0.9821   -1.3815   -2.7207 H       1  LIG1        0.0623
     27 H         -13.4901   -4.6763    0.3784 H       1  LIG1        0.0623
     28 H          -9.4523   -6.1407    0.5559 H       1  LIG1        0.0629
     29 H          -4.7269    1.8715   -2.5763 H       1  LIG1        0.0625
     30 H          -2.6291   -1.4870   -0.8796 H       1  LIG1        0.0625
     31 H         -12.7466   -2.4167    1.0989 H       1  LIG1        0.0643
     32 H          -7.5017   -4.0117    1.4154 H       1  LIG1        0.0651
     33 H         -10.8770   -0.5855    2.9535 H       1  LIG1        0.0436
     34 H          -9.8770    0.1809    1.6732 H       1  LIG1        0.0436
     35 H         -11.4734   -0.4949    1.2607 H       1  LIG1        0.0436
     36 H          -5.6606   -0.4747   -0.7895 H       1  LIG1        0.0316
     37 H          -5.1804    1.1363   -0.3190 H       1  LIG1        0.0316
     38 H          -3.4046    0.2540    1.1459 H       1  LIG1        0.0286
     39 H          -3.7723   -1.4002    0.6717 H       1  LIG1        0.0286
     40 H          -5.6536    0.4728    2.1846 H       1  LIG1        0.0467
     41 H          -4.7773   -0.8923    2.8881 H       1  LIG1        0.0467
     42 H          -6.1524   -2.1817    1.0539 H       1  LIG1        0.1497
@<TRIPOS>BOND
     1     1     3   ar
     2     1     4   ar
     3     2     5   ar
     4     2     6   ar
     5     3     7   ar
     6     4     8   ar
     7     5     9   ar
     8     6    11   ar
     9     7    12   ar
    10     8    12   ar
    11     9    13   ar
    12    10    11   ar
    13    10    14   ar
    14    11    13   ar
    15    12    17    1
    16    13    20   ar
    17    14    15    1
    18    14    20   ar
    19    15    21   am
    20    15    22    2
    21    16    20    1
    22    17    18    1
    23    18    19    1
    24    19    21    1
    25     1    23    1
    26     2    24    1
    27     3    25    1
    28     4    26    1
    29     5    27    1
    30     6    28    1
    31     7    29    1
    32     8    30    1
    33     9    31    1
    34    10    32    1
    35    16    33    1
    36    16    34    1
    37    16    35    1
    38    17    36    1
    39    17    37    1
    40    18    38    1
    41    18    39    1
    42    19    40    1
    43    19    41    1
    44    21    42    1
