@<TRIPOS>MOLECULE
ChEBML1020210
 46 50 0 0 0
SMALL
USER_CHARGES

@<TRIPOS>ATOM
      1 C          -2.4823   -0.4501   -2.0242 C.ar    1  LIG1       -0.0619
      2 C          -3.6538   -0.2582   -2.7534 C.ar    1  LIG1       -0.0619
      3 C          -2.5445   -0.9448   -0.7222 C.ar    1  LIG1       -0.0586
      4 C          -4.8896   -0.5631   -2.1824 C.ar    1  LIG1       -0.0572
      5 C         -10.4321   -5.0714    0.3186 C.ar    1  LIG1       -0.0375
      6 C         -11.7461   -5.4284    0.6341 C.ar    1  LIG1       -0.0299
      7 C         -11.9597   -3.5348    2.1383 C.ar    1  LIG1       -0.0204
      8 C          -8.9783   -0.2488    3.2679 C.ar    1  LIG1        0.1180
      9 C         -10.6365   -3.1548    1.8361 C.ar    1  LIG1        0.0262
     10 C          -3.7832   -1.2368   -0.1398 C.ar    1  LIG1       -0.0416
     11 C          -4.9644   -1.0483   -0.8697 C.ar    1  LIG1       -0.0274
     12 C          -9.7872   -2.0915    2.2525 C.ar    1  LIG1        0.0989
     13 C          -9.9039   -3.9307    0.9341 C.ar    1  LIG1        0.0402
     14 C          -8.5674   -2.2400    1.6022 C.ar    1  LIG1        0.0981
     15 C         -12.5000   -4.6734    1.5298 C.ar    1  LIG1        0.0758
     16 C          -7.5435   -1.3356    1.8236 C.ar    1  LIG1        0.1459
     17 C          -3.8805   -1.7932    1.2485 C.3     1  LIG1       -0.0116
     18 C          -6.3006   -1.4332   -0.2799 C.3     1  LIG1        0.0383
     19 C          -5.1080   -1.2292    1.9605 C.3     1  LIG1        0.0173
     20 C         -15.9775   -5.4247    0.9510 C.3     1  LIG1       -0.0410
     21 C         -14.5021   -5.7254    0.7945 C.3     1  LIG1        0.0505
     22 N         -10.0322   -1.0757    3.1179 N.ar    1  LIG1       -0.2341
     23 N          -7.7631   -0.3155    2.6808 N.ar    1  LIG1       -0.2194
     24 N          -8.6578   -3.3548    0.8114 N.ar    1  LIG1       -0.3097
     25 N          -6.3335   -1.4661    1.1913 N.pl3   1  LIG1       -0.3094
     26 O         -13.7785   -5.0468    1.8188 O.3     1  LIG1       -0.3463
     27 H          -1.5200   -0.2198   -2.4721 H       1  LIG1        0.0623
     28 H          -3.6047    0.1210   -3.7700 H       1  LIG1        0.0623
     29 H          -1.6236   -1.0996   -0.1663 H       1  LIG1        0.0625
     30 H          -5.7939   -0.4249   -2.7694 H       1  LIG1        0.0626
     31 H          -9.8470   -5.6606   -0.3794 H       1  LIG1        0.0643
     32 H         -12.1797   -6.3108    0.1690 H       1  LIG1        0.0651
     33 H         -12.5542   -2.9513    2.8361 H       1  LIG1        0.0658
     34 H          -9.1243    0.5811    3.9509 H       1  LIG1        0.1063
     35 H          -3.9424   -2.8865    1.1867 H       1  LIG1        0.0332
     36 H          -2.9854   -1.5419    1.8290 H       1  LIG1        0.0332
     37 H          -7.0494   -0.7126   -0.6350 H       1  LIG1        0.0520
     38 H          -6.5798   -2.4227   -0.6617 H       1  LIG1        0.0520
     39 H          -5.1871   -1.6995    2.9487 H       1  LIG1        0.0472
     40 H          -4.9895   -0.1494    2.1199 H       1  LIG1        0.0472
     41 H         -16.3444   -5.7670    1.9227 H       1  LIG1        0.0254
     42 H         -16.1640   -4.3495    0.8614 H       1  LIG1        0.0254
     43 H         -16.5571   -5.9151    0.1620 H       1  LIG1        0.0254
     44 H         -14.1415   -5.3806   -0.1793 H       1  LIG1        0.0569
     45 H         -14.3174   -6.7999    0.8851 H       1  LIG1        0.0569
     46 H          -7.9175   -3.7081    0.2209 H       1  LIG1        0.1530
@<TRIPOS>BOND
     1     1     2   ar
     2     1     3   ar
     3     2     4   ar
     4     3    10   ar
     5     4    11   ar
     6     5     6   ar
     7     5    13   ar
     8     6    15   ar
     9     7     9   ar
    10     7    15   ar
    11     8    22   ar
    12     8    23   ar
    13     9    12   ar
    14     9    13   ar
    15    10    11   ar
    16    10    17    1
    17    11    18    1
    18    12    14   ar
    19    12    22   ar
    20    13    24   ar
    21    14    16   ar
    22    14    24   ar
    23    15    26    1
    24    16    23   ar
    25    16    25    1
    26    17    19    1
    27    18    25    1
    28    19    25    1
    29    20    21    1
    30    21    26    1
    31     1    27    1
    32     2    28    1
    33     3    29    1
    34     4    30    1
    35     5    31    1
    36     6    32    1
    37     7    33    1
    38     8    34    1
    39    17    35    1
    40    17    36    1
    41    18    37    1
    42    18    38    1
    43    19    39    1
    44    19    40    1
    45    20    41    1
    46    20    42    1
    47    20    43    1
    48    21    44    1
    49    21    45    1
    50    24    46    1
