@<TRIPOS>MOLECULE
ChEBML347768
 36 39 0 0 0
SMALL
USER_CHARGES

@<TRIPOS>ATOM
      1 C          -4.0813   -2.1836   -1.6733 C.ar    1  LIG1       -0.0528
      2 C          -3.1166   -1.3710   -2.2801 C.ar    1  LIG1       -0.0586
      3 C         -10.3322   -5.1986    0.6404 C.ar    1  LIG1       -0.0376
      4 C         -11.6674   -5.5724    0.8173 C.ar    1  LIG1       -0.0302
      5 C         -12.1905   -3.4345    1.8433 C.ar    1  LIG1       -0.0229
      6 C          -6.0515   -2.1206    0.0351 C.ar    1  LIG1       -0.0276
      7 C         -10.1201   -1.8544    1.9883 C.ar    1  LIG1       -0.0275
      8 C          -3.9149    0.5758   -1.0647 C.ar    1  LIG1       -0.0372
      9 C          -4.9777   -1.6125   -0.7483 C.ar    1  LIG1       -0.0022
     10 C         -10.8495   -3.0354    1.6756 C.ar    1  LIG1        0.0003
     11 C          -3.0365   -0.0129   -1.9790 C.ar    1  LIG1       -0.0492
     12 C          -9.9531   -3.9250    1.0794 C.ar    1  LIG1        0.0379
     13 C          -4.8740   -0.2487   -0.4659 C.ar    1  LIG1        0.0380
     14 C         -12.5840   -4.7056    1.4092 C.ar    1  LIG1        0.0720
     15 C          -6.5690   -1.0751    0.7646 C.ar    1  LIG1        0.0811
     16 C          -8.8192   -2.0461    1.5836 C.ar    1  LIG1        0.0811
     17 C          -7.6553   -1.0935    1.6924 C.2     1  LIG1        0.2206
     18 C          -1.9967    0.8290   -2.6420 C.3     1  LIG1       -0.0397
     19 N          -8.7284   -3.2978    1.0363 N.ar    1  LIG1       -0.3112
     20 N          -5.8525    0.0498    0.4554 N.ar    1  LIG1       -0.3112
     21 O          -7.6950   -0.3024    2.6634 O.2     1  LIG1       -0.2856
     22 O         -13.8793   -5.0989    1.5679 O.3     1  LIG1       -0.3609
     23 H          -4.1327   -3.2409   -1.9172 H       1  LIG1        0.0630
     24 H          -2.4266   -1.8154   -2.9935 H       1  LIG1        0.0625
     25 H          -9.6194   -5.8739    0.1793 H       1  LIG1        0.0643
     26 H         -11.9881   -6.5570    0.4848 H       1  LIG1        0.0651
     27 H         -12.9115   -2.7641    2.3033 H       1  LIG1        0.0657
     28 H          -6.4042   -3.1432    0.0593 H       1  LIG1        0.0651
     29 H         -10.5096   -0.9617    2.4595 H       1  LIG1        0.0651
     30 H          -3.8581    1.6330   -0.8254 H       1  LIG1        0.0645
     31 H          -2.3878    1.2514   -3.5750 H       1  LIG1        0.0280
     32 H          -1.6794    1.6533   -1.9913 H       1  LIG1        0.0280
     33 H          -1.0993    0.2417   -2.8736 H       1  LIG1        0.0280
     34 H          -7.8859   -3.7058    0.6547 H       1  LIG1        0.1529
     35 H          -6.0152    0.9681    0.8453 H       1  LIG1        0.1529
     36 H         -14.3934   -4.3941    1.9915 H       1  LIG1        0.2182
@<TRIPOS>BOND
     1     1     2   ar
     2     1     9   ar
     3     2    11   ar
     4     3     4   ar
     5     3    12   ar
     6     4    14   ar
     7     5    10   ar
     8     5    14   ar
     9     6     9   ar
    10     6    15   ar
    11     7    10   ar
    12     7    16   ar
    13     8    11   ar
    14     8    13   ar
    15     9    13   ar
    16    10    12   ar
    17    11    18    1
    18    12    19   ar
    19    13    20   ar
    20    14    22    1
    21    15    17    1
    22    15    20   ar
    23    16    17    1
    24    16    19   ar
    25    17    21    2
    26     1    23    1
    27     2    24    1
    28     3    25    1
    29     4    26    1
    30     5    27    1
    31     6    28    1
    32     7    29    1
    33     8    30    1
    34    18    31    1
    35    18    32    1
    36    18    33    1
    37    19    34    1
    38    20    35    1
    39    22    36    1
