@<TRIPOS>MOLECULE
ChEBML138800
 44 46 0 0 0
SMALL
USER_CHARGES

@<TRIPOS>ATOM
      1 C          -3.8734   -0.1475   -0.6762 C.3     1  LIG1        0.0053
      2 C          -4.7354   -2.1442   -1.7125 C.3     1  LIG1        0.0053
      3 C         -12.1544   -3.6432    2.1493 C.ar    1  LIG1       -0.0207
      4 C          -9.9992   -2.2111    2.2615 C.ar    1  LIG1       -0.0361
      5 C         -10.7459   -5.2416    0.3253 C.ar    1  LIG1       -0.0145
      6 C          -2.6594   -0.3816   -1.3061 C.3     1  LIG1        0.1684
      7 C          -3.4995   -2.3278   -2.3162 C.3     1  LIG1        0.1684
      8 C         -10.8226   -3.2984    1.8143 C.ar    1  LIG1       -0.0076
      9 C          -4.9198   -1.0409   -0.8846 C.3     1  LIG1       -0.0357
     10 C         -12.7593   -4.7660    1.5781 C.ar    1  LIG1        0.1054
     11 C         -12.0604   -5.5554    0.6759 C.ar    1  LIG1        0.1059
     12 C         -10.1392   -4.1091    0.9028 C.ar    1  LIG1        0.0224
     13 C          -8.7463   -2.2211    1.6960 C.ar    1  LIG1        0.0559
     14 C          -7.6685   -1.3082    1.8977 C.2     1  LIG1        0.1694
     15 C          -1.2195   -1.6719   -2.7462 C.3     1  LIG1        0.1381
     16 C         -15.0786   -4.5033    1.1225 C.3     1  LIG1        0.0424
     17 C         -12.5029   -7.8881    0.8128 C.3     1  LIG1        0.0424
     18 C          -6.2501   -0.8148   -0.2137 C.3     1  LIG1       -0.0201
     19 C          -6.3162   -1.4957    1.1554 C.3     1  LIG1        0.0154
     20 N          -2.5090   -1.4520   -2.0982 N.3     1  LIG1       -0.2077
     21 O          -7.7688   -0.3215    2.6788 O.2     1  LIG1       -0.2935
     22 O         -14.0426   -5.0742    1.9187 O.3     1  LIG1       -0.3465
     23 O         -12.6504   -6.6515    0.1189 O.3     1  LIG1       -0.3465
     24 S          -8.5392   -3.5298    0.6237 S.2     1  LIG1       -0.0856
     25 H          -3.9946    0.7185   -0.0332 H       1  LIG1        0.0688
     26 H          -5.5375   -2.8538   -1.8889 H       1  LIG1        0.0688
     27 H         -12.7095   -3.0299    2.8559 H       1  LIG1        0.0658
     28 H         -10.3246   -1.4583    2.9696 H       1  LIG1        0.0642
     29 H         -10.2016   -5.8612   -0.3825 H       1  LIG1        0.0663
     30 H          -1.8026    0.2704   -1.1898 H       1  LIG1        0.1394
     31 H          -3.2848   -3.1624   -2.9720 H       1  LIG1        0.1394
     32 H          -0.5934   -2.2829   -2.0903 H       1  LIG1        0.1004
     33 H          -1.3553   -2.1854   -3.7021 H       1  LIG1        0.1004
     34 H          -0.7316   -0.7106   -2.9316 H       1  LIG1        0.1004
     35 H         -16.0509   -4.8286    1.5006 H       1  LIG1        0.0535
     36 H         -14.9559   -4.8181    0.0832 H       1  LIG1        0.0535
     37 H         -15.0130   -3.4143    1.1814 H       1  LIG1        0.0535
     38 H         -13.0194   -8.6790    0.2634 H       1  LIG1        0.0535
     39 H         -12.9217   -7.7949    1.8181 H       1  LIG1        0.0535
     40 H         -11.4401   -8.1312    0.8841 H       1  LIG1        0.0535
     41 H          -7.0547   -1.1857   -0.8619 H       1  LIG1        0.0320
     42 H          -6.4290    0.2635   -0.1113 H       1  LIG1        0.0320
     43 H          -5.5290   -1.0896    1.8015 H       1  LIG1        0.0354
     44 H          -6.1566   -2.5736    1.0331 H       1  LIG1        0.0354
@<TRIPOS>BOND
     1     1     6    1
     2     1     9    1
     3     2     7    1
     4     2     9    1
     5     3     8   ar
     6     3    10   ar
     7     4     8   ar
     8     4    13   ar
     9     5    11   ar
    10     5    12   ar
    11     6    20    1
    12     7    20    1
    13     8    12   ar
    14     9    18    1
    15    10    11   ar
    16    10    22    1
    17    11    23    1
    18    12    24   ar
    19    13    14    1
    20    13    24   ar
    21    14    19    1
    22    14    21    2
    23    15    20    1
    24    16    22    1
    25    17    23    1
    26    18    19    1
    27     1    25    1
    28     2    26    1
    29     3    27    1
    30     4    28    1
    31     5    29    1
    32     6    30    1
    33     7    31    1
    34    15    32    1
    35    15    33    1
    36    15    34    1
    37    16    35    1
    38    16    36    1
    39    16    37    1
    40    17    38    1
    41    17    39    1
    42    17    40    1
    43    18    41    1
    44    18    42    1
    45    19    43    1
    46    19    44    1
