@<TRIPOS>MOLECULE
ChEBML219414
 67 70 0 0 0
SMALL
USER_CHARGES

@<TRIPOS>ATOM
      1 C          -1.3045   -0.2423   -4.8413 C.ar    1  LIG1       -0.0434
      2 C          -1.0323    0.2927   -3.5872 C.ar    1  LIG1       -0.0540
      3 C         -10.2456   -5.3151    0.9147 C.ar    1  LIG1       -0.0383
      4 C         -11.5957   -5.6610    1.0215 C.ar    1  LIG1       -0.0377
      5 C         -12.1624   -3.4368    1.8148 C.ar    1  LIG1       -0.0304
      6 C         -10.0854   -1.8673    1.9786 C.ar    1  LIG1       -0.0261
      7 C          -2.6232   -0.5354   -5.1492 C.ar    1  LIG1        0.0291
      8 C         -10.8069   -3.0653    1.7154 C.ar    1  LIG1       -0.0003
      9 C          -2.0726    0.5150   -2.6917 C.ar    1  LIG1       -0.0076
     10 C          -9.8816   -4.0111    1.2686 C.ar    1  LIG1        0.0379
     11 C         -12.5410   -4.7379    1.4643 C.ar    1  LIG1        0.0437
     12 C          -8.7608   -2.1046    1.6921 C.ar    1  LIG1        0.0947
     13 C          -3.3570    0.1882   -3.0958 C.ar    1  LIG1        0.1233
     14 C          -7.6517   -1.2025    1.7999 C.2     1  LIG1        0.2598
     15 C          -6.2806   -1.0190   -1.5138 C.3     1  LIG1       -0.0185
     16 C          -4.6299   -0.1179    0.1796 C.3     1  LIG1       -0.0185
     17 C          -6.8022   -1.9764   -0.4432 C.3     1  LIG1        0.0162
     18 C          -5.2082   -1.0846    1.2142 C.3     1  LIG1        0.0162
     19 C          -4.8237   -0.6115   -1.2602 C.3     1  LIG1        0.0270
     20 C          -0.8492    0.6394    0.9679 C.3     1  LIG1       -0.0651
     21 C          -5.7334    1.9602   -3.5291 C.3     1  LIG1       -0.0494
     22 C         -14.6945   -5.4789   -0.9823 C.3     1  LIG1        0.0225
     23 C          -1.7766    1.0889   -1.3479 C.3     1  LIG1       -0.0247
     24 C          -1.1823    0.0441   -0.3909 C.3     1  LIG1       -0.0520
     25 C          -5.1203    1.6865   -2.1980 C.3     1  LIG1        0.0103
     26 N          -3.6602   -0.3332   -4.3058 N.ar    1  LIG1       -0.2411
     27 N          -8.6478   -3.4003    1.2643 N.ar    1  LIG1       -0.3101
     28 N          -6.5997   -1.4114    0.8979 N.am    1  LIG1       -0.2966
     29 N         -13.9135   -5.1223    1.5623 N.pl3   1  LIG1       -0.2633
     30 N          -4.4069    0.4112   -2.1984 N.pl3   1  LIG1       -0.3127
     31 O          -7.6548   -0.3085    2.6445 O.2     1  LIG1       -0.2702
     32 O         -16.3730   -4.7696    0.8741 O.2     1  LIG1       -0.4814
     33 O         -14.6650   -3.0923    0.0904 O.2     1  LIG1       -0.4814
     34 S         -15.0275   -4.4534    0.4325 S.O2    1  LIG1       -0.1957
     35 H          -0.5094   -0.4235   -5.5555 H       1  LIG1        0.0639
     36 H          -0.0076    0.5328   -3.3174 H       1  LIG1        0.0627
     37 H          -9.5104   -6.0344    0.5698 H       1  LIG1        0.0643
     38 H         -11.9011   -6.6698    0.7518 H       1  LIG1        0.0643
     39 H         -12.9019   -2.7191    2.1599 H       1  LIG1        0.0650
     40 H         -10.4960   -0.9334    2.3393 H       1  LIG1        0.0651
     41 H          -2.8888   -0.9552   -6.1140 H       1  LIG1        0.0840
     42 H          -6.3833   -1.4825   -2.5021 H       1  LIG1        0.0302
     43 H          -6.9032   -0.1151   -1.5132 H       1  LIG1        0.0302
     44 H          -5.1365    0.8503    0.2855 H       1  LIG1        0.0302
     45 H          -3.5671    0.0509    0.3900 H       1  LIG1        0.0302
     46 H          -7.8572   -2.1881   -0.6353 H       1  LIG1        0.0470
     47 H          -6.2743   -2.9361   -0.4776 H       1  LIG1        0.0470
     48 H          -4.6444   -2.0245    1.2276 H       1  LIG1        0.0470
     49 H          -5.1292   -0.6442    2.2131 H       1  LIG1        0.0470
     50 H          -4.1825   -1.4857   -1.4217 H       1  LIG1        0.0506
     51 H          -0.1426    1.4698    0.8697 H       1  LIG1        0.0230
     52 H          -1.7508    1.0113    1.4649 H       1  LIG1        0.0230
     53 H          -0.3940   -0.1189    1.6128 H       1  LIG1        0.0230
     54 H          -4.9666    2.0106   -4.3097 H       1  LIG1        0.0246
     55 H          -6.4631    1.1858   -3.7893 H       1  LIG1        0.0246
     56 H          -6.2561    2.9240   -3.5061 H       1  LIG1        0.0246
     57 H         -15.3454   -5.1617   -1.7986 H       1  LIG1        0.0442
     58 H         -13.6464   -5.3547   -1.2587 H       1  LIG1        0.0442
     59 H         -14.8984   -6.5160   -0.7114 H       1  LIG1        0.0442
     60 H          -1.0761    1.9373   -1.4346 H       1  LIG1        0.0317
     61 H          -2.6908    1.5113   -0.8966 H       1  LIG1        0.0317
     62 H          -1.8902   -0.7828   -0.2567 H       1  LIG1        0.0267
     63 H          -0.2724   -0.3855   -0.8274 H       1  LIG1        0.0267
     64 H          -5.8915    1.6375   -1.4235 H       1  LIG1        0.0466
     65 H          -4.4036    2.4692   -1.9327 H       1  LIG1        0.0466
     66 H          -7.7851   -3.8472    0.9853 H       1  LIG1        0.1529
     67 H         -14.0589   -6.1240    1.7688 H       1  LIG1        0.1702
@<TRIPOS>BOND
     1     1     2   ar
     2     1     7   ar
     3     2     9   ar
     4     3     4   ar
     5     3    10   ar
     6     4    11   ar
     7     5     8   ar
     8     5    11   ar
     9     6     8   ar
    10     6    12   ar
    11     7    26   ar
    12     8    10   ar
    13     9    13   ar
    14     9    23    1
    15    10    27   ar
    16    11    29    1
    17    12    14    1
    18    12    27   ar
    19    13    26   ar
    20    13    30    1
    21    14    28   am
    22    14    31    2
    23    15    17    1
    24    15    19    1
    25    16    18    1
    26    16    19    1
    27    17    28    1
    28    18    28    1
    29    19    30    1
    30    20    24    1
    31    21    25    1
    32    22    34    1
    33    23    24    1
    34    25    30    1
    35    29    34    1
    36    32    34    2
    37    33    34    2
    38     1    35    1
    39     2    36    1
    40     3    37    1
    41     4    38    1
    42     5    39    1
    43     6    40    1
    44     7    41    1
    45    15    42    1
    46    15    43    1
    47    16    44    1
    48    16    45    1
    49    17    46    1
    50    17    47    1
    51    18    48    1
    52    18    49    1
    53    19    50    1
    54    20    51    1
    55    20    52    1
    56    20    53    1
    57    21    54    1
    58    21    55    1
    59    21    56    1
    60    22    57    1
    61    22    58    1
    62    22    59    1
    63    23    60    1
    64    23    61    1
    65    24    62    1
    66    24    63    1
    67    25    64    1
    68    25    65    1
    69    27    66    1
    70    29    67    1
