@<TRIPOS>MOLECULE
ChEBML232703
 41 43 0 0 0
SMALL
USER_CHARGES

@<TRIPOS>ATOM
      1 C          -6.7075   -1.4669   -0.5622 C.ar    1  LIG1       -0.0507
      2 C          -5.2873   -0.6860    1.2295 C.ar    1  LIG1       -0.0507
      3 C          -5.6239   -1.4252   -1.4395 C.ar    1  LIG1       -0.0583
      4 C          -4.2035   -0.6442    0.3522 C.ar    1  LIG1       -0.0583
      5 C         -10.2182   -5.2436    0.5955 C.ar    1  LIG1       -0.0376
      6 C         -11.5500   -5.6439    0.7366 C.ar    1  LIG1       -0.0299
      7 C         -12.1410   -3.5204    1.7554 C.ar    1  LIG1       -0.0226
      8 C         -10.1063   -1.9008    1.9588 C.ar    1  LIG1       -0.0275
      9 C         -10.8042   -3.0948    1.6237 C.ar    1  LIG1        0.0003
     10 C          -6.5392   -1.0972    0.7722 C.ar    1  LIG1        0.0238
     11 C          -4.3719   -1.0139   -0.9822 C.ar    1  LIG1       -0.0480
     12 C          -9.8756   -3.9644    1.0479 C.ar    1  LIG1        0.0379
     13 C         -12.4983   -4.7972    1.3073 C.ar    1  LIG1        0.0753
     14 C          -8.7919   -2.0657    1.5872 C.ar    1  LIG1        0.0797
     15 C          -7.7100   -1.1424    1.7217 C.2     1  LIG1        0.2066
     16 C          -1.8824    0.4464   -3.5464 C.3     1  LIG1       -0.0651
     17 C         -14.0931   -6.5263    0.9572 C.3     1  LIG1        0.0422
     18 C          -3.2131   -0.9706   -1.9204 C.3     1  LIG1       -0.0281
     19 C          -3.0840    0.3928   -2.6164 C.3     1  LIG1       -0.0521
     20 N          -8.6625   -3.3134    1.0386 N.ar    1  LIG1       -0.3112
     21 O          -7.6797   -0.3070    2.6552 O.2     1  LIG1       -0.2871
     22 O         -13.7892   -5.2163    1.4313 O.3     1  LIG1       -0.3493
     23 H          -7.6788   -1.7889   -0.9285 H       1  LIG1        0.0630
     24 H          -5.1444   -0.3955    2.2671 H       1  LIG1        0.0630
     25 H          -5.7639   -1.7152   -2.4773 H       1  LIG1        0.0626
     26 H          -3.2314   -0.3230    0.7171 H       1  LIG1        0.0626
     27 H          -9.4808   -5.9033    0.1508 H       1  LIG1        0.0643
     28 H         -11.8427   -6.6334    0.3929 H       1  LIG1        0.0651
     29 H         -12.8865   -2.8657    2.1987 H       1  LIG1        0.0657
     30 H         -10.5252   -1.0176    2.4226 H       1  LIG1        0.0651
     31 H          -0.9556    0.2391   -3.0021 H       1  LIG1        0.0230
     32 H          -1.9786   -0.2861   -4.3542 H       1  LIG1        0.0230
     33 H          -1.7961    1.4399   -3.9975 H       1  LIG1        0.0230
     34 H         -15.1540   -6.7350    1.1154 H       1  LIG1        0.0535
     35 H         -13.4830   -7.2588    1.4917 H       1  LIG1        0.0535
     36 H         -13.8691   -6.5785   -0.1109 H       1  LIG1        0.0535
     37 H          -2.2738   -1.1925   -1.3857 H       1  LIG1        0.0316
     38 H          -3.3057   -1.7589   -2.6868 H       1  LIG1        0.0316
     39 H          -3.9932    0.6044   -3.1923 H       1  LIG1        0.0267
     40 H          -2.9926    1.1872   -1.8658 H       1  LIG1        0.0267
     41 H          -7.8027   -3.7035    0.6777 H       1  LIG1        0.1529
@<TRIPOS>BOND
     1     1     3   ar
     2     1    10   ar
     3     2     4   ar
     4     2    10   ar
     5     3    11   ar
     6     4    11   ar
     7     5     6   ar
     8     5    12   ar
     9     6    13   ar
    10     7     9   ar
    11     7    13   ar
    12     8     9   ar
    13     8    14   ar
    14     9    12   ar
    15    10    15    1
    16    11    18    1
    17    12    20   ar
    18    13    22    1
    19    14    15    1
    20    14    20   ar
    21    15    21    2
    22    16    19    1
    23    17    22    1
    24    18    19    1
    25     1    23    1
    26     2    24    1
    27     3    25    1
    28     4    26    1
    29     5    27    1
    30     6    28    1
    31     7    29    1
    32     8    30    1
    33    16    31    1
    34    16    32    1
    35    16    33    1
    36    17    34    1
    37    17    35    1
    38    17    36    1
    39    18    37    1
    40    18    38    1
    41    19    39    1
    42    19    40    1
    43    20    41    1
