@<TRIPOS>MOLECULE
ChEBML369952
 45 48 0 0 0
SMALL
USER_CHARGES

@<TRIPOS>ATOM
      1 C          -1.2625    0.8633   -3.6007 C.ar    1  LIG1       -0.0621
      2 C          -2.5008    1.2572   -4.1076 C.ar    1  LIG1       -0.0596
      3 C          -1.1991   -0.0087   -2.5140 C.ar    1  LIG1       -0.0596
      4 C         -12.0208   -3.9875    2.0342 C.ar    1  LIG1       -0.0504
      5 C          -3.6759    0.7789   -3.5276 C.ar    1  LIG1       -0.0318
      6 C          -2.3741   -0.4869   -1.9339 C.ar    1  LIG1       -0.0318
      7 C         -12.3028   -5.2316    1.4584 C.ar    1  LIG1       -0.0313
      8 C         -10.1396   -2.1931    2.2478 C.ar    1  LIG1       -0.0262
      9 C         -10.0848   -5.3374    0.4714 C.ar    1  LIG1       -0.0100
     10 C         -10.7538   -3.4062    1.8283 C.ar    1  LIG1       -0.0020
     11 C          -9.8170   -4.0932    1.0532 C.ar    1  LIG1        0.0404
     12 C          -3.6125   -0.0931   -2.4408 C.ar    1  LIG1        0.0753
     13 C         -11.3483   -5.8944    0.6894 C.ar    1  LIG1        0.0732
     14 C          -8.8654   -2.1676    1.7294 C.ar    1  LIG1        0.0947
     15 C          -7.8648   -1.1516    1.8773 C.2     1  LIG1        0.2598
     16 C          -7.0892   -0.1054   -1.4698 C.3     1  LIG1       -0.0102
     17 C          -5.3091    0.6753    0.1345 C.3     1  LIG1       -0.0102
     18 C          -7.3314   -1.3164   -0.5741 C.3     1  LIG1        0.0169
     19 C          -5.5821   -0.5542    0.9944 C.3     1  LIG1        0.0169
     20 C          -5.6556    0.4101   -1.3325 C.3     1  LIG1        0.0672
     21 N          -8.6802   -3.3178    1.0101 N.ar    1  LIG1       -0.3100
     22 N          -6.9657   -1.0138    0.8105 N.am    1  LIG1       -0.2965
     23 O          -7.8244   -0.4592    2.8930 O.2     1  LIG1       -0.2702
     24 O         -11.6492   -7.1055    0.1399 O.3     1  LIG1       -0.3608
     25 O          -4.7662   -0.5617   -1.8697 O.3     1  LIG1       -0.3427
     26 H          -0.3474    1.2349   -4.0526 H       1  LIG1        0.0622
     27 H          -2.5504    1.9363   -4.9539 H       1  LIG1        0.0623
     28 H          -0.2343   -0.3151   -2.1199 H       1  LIG1        0.0623
     29 H         -12.7747   -3.4810    2.6299 H       1  LIG1        0.0630
     30 H          -4.6374    1.0908   -3.9263 H       1  LIG1        0.0650
     31 H          -2.3186   -1.1645   -1.0864 H       1  LIG1        0.0650
     32 H         -13.2809   -5.6789    1.6185 H       1  LIG1        0.0650
     33 H         -10.5861   -1.4232    2.8632 H       1  LIG1        0.0651
     34 H          -9.3386   -5.8504   -0.1266 H       1  LIG1        0.0670
     35 H          -7.2965   -0.3597   -2.5161 H       1  LIG1        0.0309
     36 H          -7.7922    0.6970   -1.2099 H       1  LIG1        0.0309
     37 H          -5.8993    1.5259    0.5003 H       1  LIG1        0.0309
     38 H          -4.2587    0.9759    0.2227 H       1  LIG1        0.0309
     39 H          -8.3795   -1.6236   -0.6438 H       1  LIG1        0.0470
     40 H          -6.7171   -2.1645   -0.8988 H       1  LIG1        0.0470
     41 H          -4.9237   -1.3806    0.7014 H       1  LIG1        0.0470
     42 H          -5.3660   -0.3233    2.0403 H       1  LIG1        0.0470
     43 H          -5.5403    1.3311   -1.9166 H       1  LIG1        0.0610
     44 H          -7.8323   -3.5660    0.5191 H       1  LIG1        0.1529
     45 H         -12.5541   -7.3630    0.3748 H       1  LIG1        0.2182
@<TRIPOS>BOND
     1     1     2   ar
     2     1     3   ar
     3     2     5   ar
     4     3     6   ar
     5     4     7   ar
     6     4    10   ar
     7     5    12   ar
     8     6    12   ar
     9     7    13   ar
    10     8    10   ar
    11     8    14   ar
    12     9    11   ar
    13     9    13   ar
    14    10    11   ar
    15    11    21   ar
    16    12    25    1
    17    13    24    1
    18    14    15    1
    19    14    21   ar
    20    15    22   am
    21    15    23    2
    22    16    18    1
    23    16    20    1
    24    17    19    1
    25    17    20    1
    26    18    22    1
    27    19    22    1
    28    20    25    1
    29     1    26    1
    30     2    27    1
    31     3    28    1
    32     4    29    1
    33     5    30    1
    34     6    31    1
    35     7    32    1
    36     8    33    1
    37     9    34    1
    38    16    35    1
    39    16    36    1
    40    17    37    1
    41    17    38    1
    42    18    39    1
    43    18    40    1
    44    19    41    1
    45    19    42    1
    46    20    43    1
    47    21    44    1
    48    24    45    1
