@<TRIPOS>MOLECULE
ChEBML61709
 58 63 0 0 0
SMALL
USER_CHARGES

@<TRIPOS>ATOM
      1 C         -11.5500   -5.7862    0.4703 C.ar    1  LIG1       -0.0615
      2 C         -12.5592   -4.8883    0.7858 C.ar    1  LIG1       -0.0611
      3 C         -10.2092   -5.4275    0.6338 C.ar    1  LIG1       -0.0519
      4 C          -0.3120   -0.3288   -3.8621 C.ar    1  LIG1       -0.0561
      5 C           0.3215   -1.5518   -3.6445 C.ar    1  LIG1       -0.0315
      6 C         -12.2527   -3.6153    1.2694 C.ar    1  LIG1       -0.0475
      7 C          -1.4905   -2.2356   -2.2019 C.ar    1  LIG1       -0.0278
      8 C          -9.8619   -4.1437    1.1231 C.ar    1  LIG1        0.0112
      9 C          -1.5445   -0.0452   -3.2550 C.ar    1  LIG1       -0.0441
     10 C          -2.1319   -1.0054   -2.4002 C.ar    1  LIG1       -0.0334
     11 C          -8.5880   -3.5394    1.3780 C.ar    1  LIG1        0.0618
     12 C          -0.2678   -2.5039   -2.8171 C.ar    1  LIG1        0.0749
     13 C         -10.9004   -3.2558    1.4335 C.ar    1  LIG1        0.0216
     14 C          -8.6866   -2.2616    1.8555 C.ar    1  LIG1        0.0976
     15 C          -7.5531   -1.4354    2.1909 C.ar    1  LIG1        0.2622
     16 C          -6.1614   -3.4271    1.4753 C.ar    1  LIG1        0.3120
     17 C          -2.1738    1.3151   -3.4908 C.3     1  LIG1       -0.0271
     18 C          -3.5961    1.4785   -2.9344 C.3     1  LIG1       -0.0406
     19 C          -3.7931   -1.2516   -0.4010 C.3     1  LIG1       -0.0267
     20 C          -5.0322    0.8229   -0.8864 C.3     1  LIG1       -0.0305
     21 C          -3.4792   -0.7268   -1.7937 C.3     1  LIG1        0.0312
     22 C          -3.6926    0.7721   -1.5940 C.3     1  LIG1        0.0102
     23 C           1.5934   -3.9118   -3.2750 C.3     1  LIG1        0.0422
     24 C          -5.0861   -1.3793    2.2812 C.3     1  LIG1        0.0631
     25 C          -5.0195   -0.0926    1.4805 C.3     1  LIG1       -0.0175
     26 N          -7.3418   -4.1093    1.1907 N.ar    1  LIG1       -0.2668
     27 N          -6.3350   -2.1109    1.9727 N.ar    1  LIG1       -0.2153
     28 N          -4.9961   -0.4079    0.0188 N.4     1  LIG1        0.2478
     29 O          -7.6535   -0.2846    2.6122 O.2     1  LIG1       -0.2704
     30 O          -5.0632   -3.9615    1.2940 O.2     1  LIG1       -0.2532
     31 O           0.3480   -3.7004   -2.6119 O.3     1  LIG1       -0.3493
     32 S         -10.2898   -1.7468    2.0124 S.2     1  LIG1       -0.0819
     33 H         -11.8008   -6.7741    0.0942 H       1  LIG1        0.0623
     34 H         -13.5989   -5.1765    0.6555 H       1  LIG1        0.0623
     35 H          -9.4331   -6.1459    0.3811 H       1  LIG1        0.0630
     36 H           0.1621    0.4065   -4.5076 H       1  LIG1        0.0626
     37 H           1.2748   -1.7556   -4.1245 H       1  LIG1        0.0650
     38 H         -13.0497   -2.9186    1.5134 H       1  LIG1        0.0635
     39 H          -1.9448   -2.9960   -1.5714 H       1  LIG1        0.0653
     40 H          -1.5272    2.0631   -3.0136 H       1  LIG1        0.0316
     41 H          -2.1888    1.5322   -4.5657 H       1  LIG1        0.0316
     42 H          -3.8396    2.5424   -2.8388 H       1  LIG1        0.0275
     43 H          -4.3177    1.0483   -3.6409 H       1  LIG1        0.0275
     44 H          -4.0938   -2.3029   -0.3772 H       1  LIG1        0.0821
     45 H          -2.9807   -1.0677    0.3111 H       1  LIG1        0.0821
     46 H          -5.1709    1.7226   -0.2799 H       1  LIG1        0.0818
     47 H          -5.8805    0.6865   -1.5651 H       1  LIG1        0.0818
     48 H          -4.2304   -1.1238   -2.4937 H       1  LIG1        0.0412
     49 H          -2.9260    1.1845   -0.9196 H       1  LIG1        0.0365
     50 H           1.9758   -4.9047   -3.0258 H       1  LIG1        0.0535
     51 H           2.3078   -3.1456   -2.9635 H       1  LIG1        0.0535
     52 H           1.4374   -3.8444   -4.3543 H       1  LIG1        0.0535
     53 H          -4.2322   -2.0292    2.0625 H       1  LIG1        0.0531
     54 H          -5.0774   -1.1552    3.3528 H       1  LIG1        0.0531
     55 H          -4.1020    0.4627    1.6953 H       1  LIG1        0.0831
     56 H          -5.8877    0.5508    1.6519 H       1  LIG1        0.0831
     57 H          -7.2856   -5.0579    0.8336 H       1  LIG1        0.1574
     58 H          -5.8418   -0.9569   -0.1880 H       1  LIG1        0.2004
@<TRIPOS>BOND
     1     1     2   ar
     2     1     3   ar
     3     2     6   ar
     4     3     8   ar
     5     4     5   ar
     6     4     9   ar
     7     5    12   ar
     8     6    13   ar
     9     7    10   ar
    10     7    12   ar
    11     8    11   ar
    12     8    13   ar
    13     9    10   ar
    14     9    17    1
    15    10    21    1
    16    11    14   ar
    17    11    26   ar
    18    12    31    1
    19    13    32   ar
    20    14    15   ar
    21    14    32   ar
    22    15    27   ar
    23    15    29    2
    24    16    26   ar
    25    16    27   ar
    26    16    30    2
    27    17    18    1
    28    18    22    1
    29    19    21    1
    30    19    28    1
    31    20    22    1
    32    20    28    1
    33    21    22    1
    34    23    31    1
    35    24    25    1
    36    24    27    1
    37    25    28    1
    38     1    33    1
    39     2    34    1
    40     3    35    1
    41     4    36    1
    42     5    37    1
    43     6    38    1
    44     7    39    1
    45    17    40    1
    46    17    41    1
    47    18    42    1
    48    18    43    1
    49    19    44    1
    50    19    45    1
    51    20    46    1
    52    20    47    1
    53    21    48    1
    54    22    49    1
    55    23    50    1
    56    23    51    1
    57    23    52    1
    58    24    53    1
    59    24    54    1
    60    25    55    1
    61    25    56    1
    62    26    57    1
    63    28    58    1
