@<TRIPOS>MOLECULE
ChEBML300346
 53 55 0 0 0
SMALL
USER_CHARGES

@<TRIPOS>ATOM
      1 C         -10.3427   -5.1744    0.4638 C.ar    1  LIG1       -0.0387
      2 C         -11.6797   -5.5304    0.6621 C.ar    1  LIG1       -0.0416
      3 C         -12.0853   -3.5143    1.9536 C.ar    1  LIG1       -0.0343
      4 C          -9.9603   -2.0182    2.1778 C.ar    1  LIG1       -0.0262
      5 C         -10.7413   -3.1346    1.7670 C.ar    1  LIG1       -0.0007
      6 C          -9.9027   -3.9716    1.0279 C.ar    1  LIG1        0.0379
      7 C         -12.5394   -4.7147    1.3952 C.ar    1  LIG1        0.0413
      8 C          -8.6864   -2.1961    1.6896 C.ar    1  LIG1        0.0945
      9 C          -7.5058   -1.3083    1.8486 C.2     1  LIG1        0.2576
     10 C          -4.6306   -0.6120   -0.0624 C.2     1  LIG1        0.2321
     11 C          -2.3923    0.0847   -3.6540 C.3     1  LIG1       -0.0515
     12 C          -3.1490    1.4113   -3.5448 C.3     1  LIG1       -0.0515
     13 C          -2.5721   -0.6153   -2.3096 C.3     1  LIG1       -0.0344
     14 C          -3.7443    1.4426   -2.1396 C.3     1  LIG1       -0.0344
     15 C          -2.8226    0.5317   -1.3379 C.3     1  LIG1        0.0256
     16 C          -1.2932   -0.2719    1.0886 C.3     1  LIG1       -0.0463
     17 C          -5.0993   -1.0019    1.3284 C.3     1  LIG1        0.0887
     18 C          -2.4839    1.9330    1.2889 C.3     1  LIG1       -0.0113
     19 C          -3.8109    2.6847    1.3547 C.3     1  LIG1        0.0449
     20 C          -2.6549    0.4181    1.1184 C.3     1  LIG1        0.0250
     21 N          -8.6615   -3.3769    0.9972 N.ar    1  LIG1       -0.3101
     22 N          -6.3286   -1.7372    1.2437 N.am    1  LIG1       -0.3013
     23 N          -3.4045    0.0931   -0.1028 N.am    1  LIG1       -0.2946
     24 O          -7.6153   -0.2762    2.5054 O.2     1  LIG1       -0.2704
     25 O          -5.2956   -0.9077   -1.0588 O.2     1  LIG1       -0.2756
     26 O          -4.5841    2.1979    2.4450 O.3     1  LIG1       -0.3962
     27 CL        -14.1816   -5.1868    1.6165 Cl      1  LIG1       -0.0843
     28 H          -9.6742   -5.8108   -0.1065 H       1  LIG1        0.0643
     29 H         -12.0392   -6.4625    0.2312 H       1  LIG1        0.0639
     30 H         -12.7545   -2.8773    2.5260 H       1  LIG1        0.0645
     31 H         -10.2984   -1.1766    2.7676 H       1  LIG1        0.0651
     32 H          -2.7667   -0.5322   -4.4772 H       1  LIG1        0.0267
     33 H          -1.3303    0.2783   -3.8442 H       1  LIG1        0.0267
     34 H          -2.4535    2.2470   -3.6837 H       1  LIG1        0.0267
     35 H          -3.9274    1.5009   -4.3092 H       1  LIG1        0.0267
     36 H          -3.4364   -1.2905   -2.3512 H       1  LIG1        0.0285
     37 H          -1.6985   -1.2139   -2.0335 H       1  LIG1        0.0285
     38 H          -3.7897    2.4570   -1.7309 H       1  LIG1        0.0285
     39 H          -4.7682    1.0480   -2.1588 H       1  LIG1        0.0285
     40 H          -1.8849    1.0481   -1.1008 H       1  LIG1        0.0506
     41 H          -0.6830    0.1065    0.2611 H       1  LIG1        0.0249
     42 H          -0.7440   -0.0961    2.0192 H       1  LIG1        0.0249
     43 H          -1.3995   -1.3539    0.9516 H       1  LIG1        0.0249
     44 H          -4.3607   -1.6470    1.8111 H       1  LIG1        0.0567
     45 H          -5.2900   -0.1096    1.9303 H       1  LIG1        0.0567
     46 H          -1.8998    2.3360    0.4513 H       1  LIG1        0.0309
     47 H          -1.9007    2.1556    2.1921 H       1  LIG1        0.0309
     48 H          -4.3987    2.5399    0.4440 H       1  LIG1        0.0564
     49 H          -3.6534    3.7588    1.4954 H       1  LIG1        0.0564
     50 H          -3.2346    0.0148    1.9565 H       1  LIG1        0.0504
     51 H          -7.8510   -3.7600    0.5300 H       1  LIG1        0.1529
     52 H          -6.3071   -2.6391    0.7688 H       1  LIG1        0.1503
     53 H          -5.4131    2.7024    2.4462 H       1  LIG1        0.2100
@<TRIPOS>BOND
     1     1     2   ar
     2     1     6   ar
     3     2     7   ar
     4     3     5   ar
     5     3     7   ar
     6     4     5   ar
     7     4     8   ar
     8     5     6   ar
     9     6    21   ar
    10     7    27    1
    11     8     9    1
    12     8    21   ar
    13     9    22   am
    14     9    24    2
    15    10    17    1
    16    10    23   am
    17    10    25    2
    18    11    12    1
    19    11    13    1
    20    12    14    1
    21    13    15    1
    22    14    15    1
    23    15    23    1
    24    16    20    1
    25    17    22    1
    26    18    19    1
    27    18    20    1
    28    19    26    1
    29    20    23    1
    30     1    28    1
    31     2    29    1
    32     3    30    1
    33     4    31    1
    34    11    32    1
    35    11    33    1
    36    12    34    1
    37    12    35    1
    38    13    36    1
    39    13    37    1
    40    14    38    1
    41    14    39    1
    42    15    40    1
    43    16    41    1
    44    16    42    1
    45    16    43    1
    46    17    44    1
    47    17    45    1
    48    18    46    1
    49    18    47    1
    50    19    48    1
    51    19    49    1
    52    20    50    1
    53    21    51    1
    54    22    52    1
    55    26    53    1
