@<TRIPOS>MOLECULE
ChEBML485857
 37 39 0 0 0
SMALL
USER_CHARGES

@<TRIPOS>ATOM
      1 C          -3.5817    0.6545    2.1964 C.ar    1  LIG1       -0.0601
      2 C          -2.8284    0.7389    1.0256 C.ar    1  LIG1       -0.0588
      3 C          -9.9542   -5.4375    0.8239 C.ar    1  LIG1       -0.0387
      4 C          -4.7789   -0.0615    2.2054 C.ar    1  LIG1       -0.0407
      5 C         -11.2970   -5.8248    0.7940 C.ar    1  LIG1       -0.0416
      6 C         -12.0144   -3.5945    1.4335 C.ar    1  LIG1       -0.0343
      7 C         -10.0162   -1.9511    1.7653 C.ar    1  LIG1       -0.0262
      8 C          -4.4694   -0.6081   -0.1275 C.ar    1  LIG1       -0.0374
      9 C         -10.6678   -3.1812    1.4704 C.ar    1  LIG1       -0.0007
     10 C          -3.2723    0.1077   -0.1364 C.ar    1  LIG1       -0.0439
     11 C          -9.6708   -4.1103    1.1653 C.ar    1  LIG1        0.0379
     12 C          -5.2228   -0.6927    1.0434 C.ar    1  LIG1        0.0331
     13 C         -12.3128   -4.9191    1.0937 C.ar    1  LIG1        0.0413
     14 C          -8.6614   -2.1534    1.6364 C.ar    1  LIG1        0.0948
     15 C          -7.6021   -1.2148    1.8316 C.2     1  LIG1        0.2615
     16 C          -2.4665    0.1984   -1.3879 C.3     1  LIG1       -0.0045
     17 C          -1.4419   -0.9294   -1.5280 C.3     1  LIG1        0.0471
     18 N          -8.4630   -3.4588    1.2740 N.ar    1  LIG1       -0.3101
     19 N          -6.4392   -1.4207    1.0530 N.am    1  LIG1       -0.2802
     20 O          -7.6701   -0.2810    2.6636 O.2     1  LIG1       -0.2700
     21 O          -2.1137   -2.1817   -1.5760 O.3     1  LIG1       -0.3960
     22 CL        -13.9564   -5.4337    1.0445 Cl      1  LIG1       -0.0843
     23 H          -3.2360    1.1455    3.1014 H       1  LIG1        0.0623
     24 H          -1.8976    1.2994    1.0283 H       1  LIG1        0.0625
     25 H          -9.1642   -6.1437    0.5909 H       1  LIG1        0.0643
     26 H          -5.3579   -0.1205    3.1236 H       1  LIG1        0.0642
     27 H         -11.5360   -6.8530    0.5310 H       1  LIG1        0.0639
     28 H         -12.8056   -2.8873    1.6680 H       1  LIG1        0.0645
     29 H         -10.4916   -1.0194    2.0419 H       1  LIG1        0.0651
     30 H          -4.8140   -1.0988   -1.0352 H       1  LIG1        0.0645
     31 H          -3.1306    0.1931   -2.2665 H       1  LIG1        0.0339
     32 H          -1.9325    1.1608   -1.4143 H       1  LIG1        0.0339
     33 H          -0.8803   -0.8146   -2.4606 H       1  LIG1        0.0567
     34 H          -0.7361   -0.9392   -0.6908 H       1  LIG1        0.0567
     35 H          -7.5617   -3.8858    1.1094 H       1  LIG1        0.1529
     36 H          -6.4820   -2.2045    0.4064 H       1  LIG1        0.1560
     37 H          -1.4283   -2.8634   -1.6645 H       1  LIG1        0.2100
@<TRIPOS>BOND
     1     1     2   ar
     2     1     4   ar
     3     2    10   ar
     4     3     5   ar
     5     3    11   ar
     6     4    12   ar
     7     5    13   ar
     8     6     9   ar
     9     6    13   ar
    10     7     9   ar
    11     7    14   ar
    12     8    10   ar
    13     8    12   ar
    14     9    11   ar
    15    10    16    1
    16    11    18   ar
    17    12    19    1
    18    13    22    1
    19    14    15    1
    20    14    18   ar
    21    15    19   am
    22    15    20    2
    23    16    17    1
    24    17    21    1
    25     1    23    1
    26     2    24    1
    27     3    25    1
    28     4    26    1
    29     5    27    1
    30     6    28    1
    31     7    29    1
    32     8    30    1
    33    16    31    1
    34    16    32    1
    35    17    33    1
    36    17    34    1
    37    18    35    1
    38    19    36    1
    39    21    37    1
