@<TRIPOS>MOLECULE
ChEBML512692
 33 35 0 0 0
SMALL
USER_CHARGES

@<TRIPOS>ATOM
      1 C          -3.6599    0.1549   -2.5524 C.ar    1  LIG1       -0.0622
      2 C         -12.5404   -4.7068    1.4003 C.ar    1  LIG1       -0.0615
      3 C          -2.7554   -0.0891   -1.5190 C.ar    1  LIG1       -0.0619
      4 C          -5.0298    0.0201   -2.3265 C.ar    1  LIG1       -0.0619
      5 C         -11.6840   -5.5238    0.6649 C.ar    1  LIG1       -0.0603
      6 C         -12.0824   -3.5080    1.9590 C.ar    1  LIG1       -0.0530
      7 C          -3.2207   -0.4679   -0.2598 C.ar    1  LIG1       -0.0574
      8 C          -5.4951   -0.3587   -1.0673 C.ar    1  LIG1       -0.0574
      9 C         -10.3465   -5.1708    0.4644 C.ar    1  LIG1       -0.0402
     10 C          -9.9534   -2.0171    2.1806 C.ar    1  LIG1       -0.0262
     11 C         -10.7378   -3.1313    1.7702 C.ar    1  LIG1       -0.0022
     12 C          -4.5905   -0.6028   -0.0339 C.ar    1  LIG1       -0.0308
     13 C          -9.9025   -3.9696    1.0288 C.ar    1  LIG1        0.0378
     14 C          -8.6808   -2.1975    1.6898 C.ar    1  LIG1        0.0945
     15 C          -7.5431   -1.3466    1.8412 C.2     1  LIG1        0.2575
     16 C          -5.0921   -1.0107    1.3212 C.3     1  LIG1        0.0366
     17 N          -8.6600   -3.3778    0.9963 N.ar    1  LIG1       -0.3101
     18 N          -6.3315   -1.7493    1.2394 N.am    1  LIG1       -0.3061
     19 O          -7.6036   -0.2810    2.5052 O.2     1  LIG1       -0.2704
     20 H          -3.2975    0.4512   -3.5324 H       1  LIG1        0.0622
     21 H         -13.5766   -5.0023    1.5419 H       1  LIG1        0.0623
     22 H          -1.6888    0.0167   -1.6944 H       1  LIG1        0.0623
     23 H          -5.7343    0.2111   -3.1305 H       1  LIG1        0.0623
     24 H         -12.0608   -6.4506    0.2402 H       1  LIG1        0.0623
     25 H         -12.7609   -2.8801    2.5296 H       1  LIG1        0.0629
     26 H          -2.5085   -0.6562    0.5394 H       1  LIG1        0.0626
     27 H          -6.5641   -0.4613   -0.9005 H       1  LIG1        0.0626
     28 H          -9.6799   -5.8073   -0.1078 H       1  LIG1        0.0642
     29 H         -10.2887   -1.1754    2.7719 H       1  LIG1        0.0651
     30 H          -4.3562   -1.6421    1.8312 H       1  LIG1        0.0518
     31 H          -5.2651   -0.1354    1.9560 H       1  LIG1        0.0518
     32 H          -7.8511   -3.7626    0.5277 H       1  LIG1        0.1529
     33 H          -6.3040   -2.6460    0.7650 H       1  LIG1        0.1501
@<TRIPOS>BOND
     1     1     3   ar
     2     1     4   ar
     3     2     5   ar
     4     2     6   ar
     5     3     7   ar
     6     4     8   ar
     7     5     9   ar
     8     6    11   ar
     9     7    12   ar
    10     8    12   ar
    11     9    13   ar
    12    10    11   ar
    13    10    14   ar
    14    11    13   ar
    15    12    16    1
    16    13    17   ar
    17    14    15    1
    18    14    17   ar
    19    15    18   am
    20    15    19    2
    21    16    18    1
    22     1    20    1
    23     2    21    1
    24     3    22    1
    25     4    23    1
    26     5    24    1
    27     6    25    1
    28     7    26    1
    29     8    27    1
    30     9    28    1
    31    10    29    1
    32    16    30    1
    33    16    31    1
    34    17    32    1
    35    18    33    1
