@<TRIPOS>MOLECULE
ChEBML1137483
 49 52 0 0 0
SMALL
USER_CHARGES

@<TRIPOS>ATOM
      1 C          -3.6529    1.2133   -3.2082 C.ar    1  LIG1       -0.0602
      2 C          -2.3856    0.8225   -3.5990 C.ar    1  LIG1       -0.0595
      3 C         -12.9822   -2.5092    1.8874 C.ar    1  LIG1       -0.0498
      4 C          -4.2547    0.6234   -2.1126 C.ar    1  LIG1       -0.0382
      5 C          -1.7136   -0.1605   -2.8959 C.ar    1  LIG1       -0.0299
      6 C         -14.3326   -2.7925    1.8774 C.ar    1  LIG1       -0.0427
      7 C         -13.8830   -4.9543    0.9362 C.ar    1  LIG1       -0.0241
      8 C         -10.0163   -1.9653    1.8826 C.ar    1  LIG1       -0.0058
      9 C         -12.0709   -3.4532    1.4189 C.ar    1  LIG1        0.0206
     10 C          -3.5886   -0.3671   -1.4055 C.ar    1  LIG1        0.0594
     11 C          -2.3094   -0.7562   -1.7965 C.ar    1  LIG1        0.0957
     12 C         -14.7833   -4.0126    1.4029 C.ar    1  LIG1        0.0421
     13 C         -12.5294   -4.6782    0.9367 C.ar    1  LIG1        0.0515
     14 C         -10.6172   -3.1532    1.4277 C.ar    1  LIG1        0.0920
     15 C          -8.6595   -2.1481    1.6953 C.ar    1  LIG1        0.1124
     16 C          -7.5890   -1.1894    2.0145 C.2     1  LIG1        0.2614
     17 C          -4.5882    0.1136    0.6100 C.3     1  LIG1        0.0275
     18 C          -5.4310   -1.5985   -0.7875 C.3     1  LIG1        0.0275
     19 C          -5.2439   -0.4777    1.8620 C.3     1  LIG1        0.0303
     20 C          -6.1422   -2.3028    0.3723 C.3     1  LIG1        0.0303
     21 C          -0.3817   -1.8950   -1.7407 C.3     1  LIG1        0.0423
     22 N          -9.6560   -3.9508    1.0117 N.ar    1  LIG1       -0.1834
     23 N          -8.5081   -3.3918    1.1498 N.ar    1  LIG1       -0.2326
     24 N          -4.1982   -0.9700   -0.2993 N.pl3   1  LIG1       -0.3255
     25 N          -6.3763   -1.3178    1.4404 N.am    1  LIG1       -0.2935
     26 O          -7.7986   -0.2817    2.7963 O.2     1  LIG1       -0.2701
     27 O          -1.6493   -1.7228   -1.1038 O.3     1  LIG1       -0.3473
     28 CL        -16.4837   -4.3626    1.3938 Cl      1  LIG1       -0.0843
     29 CL        -11.4011   -5.8569    0.3440 Cl      1  LIG1       -0.0835
     30 H          -4.1739    1.9817   -3.7602 H       1  LIG1        0.0623
     31 H          -1.9191    1.2863   -4.4555 H       1  LIG1        0.0623
     32 H         -12.6321   -1.5571    2.2582 H       1  LIG1        0.0631
     33 H          -5.2446    0.9309   -1.8092 H       1  LIG1        0.0643
     34 H          -0.7238   -0.4635   -3.2038 H       1  LIG1        0.0651
     35 H         -15.0394   -2.0612    2.2408 H       1  LIG1        0.0638
     36 H         -14.2394   -5.9047    0.5671 H       1  LIG1        0.0654
     37 H         -10.5102   -1.0960    2.2910 H       1  LIG1        0.0668
     38 H          -3.7039    0.6823    0.8974 H       1  LIG1        0.0485
     39 H          -5.2956    0.7728    0.1067 H       1  LIG1        0.0485
     40 H          -6.0869   -0.8347   -1.2055 H       1  LIG1        0.0485
     41 H          -5.1856   -2.3278   -1.5595 H       1  LIG1        0.0485
     42 H          -4.5187   -1.0845    2.4043 H       1  LIG1        0.0486
     43 H          -5.6028    0.3272    2.5034 H       1  LIG1        0.0486
     44 H          -5.5165   -3.1117    0.7497 H       1  LIG1        0.0486
     45 H          -7.0952   -2.7050    0.0285 H       1  LIG1        0.0486
     46 H           0.1862   -2.6642   -1.2176 H       1  LIG1        0.0535
     47 H          -0.5338   -2.1970   -2.7769 H       1  LIG1        0.0535
     48 H           0.1691   -0.9548   -1.7134 H       1  LIG1        0.0535
     49 H          -7.6596   -3.7938    0.9057 H       1  LIG1        0.1757
@<TRIPOS>BOND
     1     1     2   ar
     2     1     4   ar
     3     2     5   ar
     4     3     6   ar
     5     3     9   ar
     6     4    10   ar
     7     5    11   ar
     8     6    12   ar
     9     7    12   ar
    10     7    13   ar
    11     8    14   ar
    12     8    15   ar
    13     9    13   ar
    14     9    14    1
    15    10    11   ar
    16    10    24    1
    17    11    27    1
    18    12    28    1
    19    13    29    1
    20    14    22   ar
    21    15    16    1
    22    15    23   ar
    23    16    25   am
    24    16    26    2
    25    17    19    1
    26    17    24    1
    27    18    20    1
    28    18    24    1
    29    19    25    1
    30    20    25    1
    31    21    27    1
    32    22    23   ar
    33     1    30    1
    34     2    31    1
    35     3    32    1
    36     4    33    1
    37     5    34    1
    38     6    35    1
    39     7    36    1
    40     8    37    1
    41    17    38    1
    42    17    39    1
    43    18    40    1
    44    18    41    1
    45    19    42    1
    46    19    43    1
    47    20    44    1
    48    20    45    1
    49    21    46    1
    50    21    47    1
    51    21    48    1
    52    23    49    1
