@<TRIPOS>MOLECULE
ChEBML622678
 42 45 0 0 0
SMALL
USER_CHARGES

@<TRIPOS>ATOM
      1 C          -2.0522    0.8479   -3.2721 C.ar    1  LIG1       -0.0432
      2 C          -1.8263   -0.4691   -2.8875 C.ar    1  LIG1       -0.0462
      3 C         -11.6027   -5.3689    0.6331 C.ar    1  LIG1       -0.0482
      4 C         -12.0523   -3.0666    1.2116 C.ar    1  LIG1       -0.0482
      5 C         -10.2367   -5.1454    0.8049 C.ar    1  LIG1       -0.0402
      6 C         -10.6863   -2.8431    1.3835 C.ar    1  LIG1       -0.0402
      7 C          -6.2562   -0.3040    2.4319 C.ar    1  LIG1       -0.0156
      8 C          -3.2006    1.4705   -2.8102 C.ar    1  LIG1        0.0276
      9 C          -7.2212   -0.8629    3.2532 C.ar    1  LIG1        0.0314
     10 C          -5.5751   -2.1007   -1.1654 C.ar    1  LIG1        0.0557
     11 C         -12.5106   -4.3295    0.8364 C.ar    1  LIG1        0.0556
     12 C          -2.7428   -1.1140   -2.0644 C.ar    1  LIG1        0.0834
     13 C          -5.9964   -0.8885    1.1991 C.ar    1  LIG1        0.0946
     14 C          -6.7225   -2.0289    0.8256 C.ar    1  LIG1        0.1291
     15 C          -9.7784   -3.8825    1.1802 C.ar    1  LIG1        0.0314
     16 C          -4.8640   -0.9864   -0.8035 C.ar    1  LIG1        0.1083
     17 C          -3.8602   -0.4034   -1.6565 C.ar    1  LIG1        0.1024
     18 C          -7.6646   -2.5041    1.7236 C.ar    1  LIG1        0.1498
     19 C         -13.9713   -4.5675    0.6525 C.3     1  LIG1        0.4160
     20 C          -2.4986   -2.5265   -1.6550 C.3     1  LIG1        0.4181
     21 N          -6.5097   -2.6332   -0.3579 N.ar    1  LIG1       -0.2485
     22 N          -4.1136    0.8767   -2.0095 N.ar    1  LIG1       -0.2539
     23 N          -7.9364   -1.9551    2.9280 N.ar    1  LIG1       -0.2388
     24 N          -5.0663   -0.3716    0.3768 N.ar    1  LIG1       -0.2426
     25 N          -8.4057   -3.6580    1.3548 N.pl3   1  LIG1       -0.2978
     26 F         -14.2756   -5.8475    0.2850 F       1  LIG1       -0.1661
     27 F         -14.7090   -4.3355    1.7784 F       1  LIG1       -0.1661
     28 F         -14.5158   -3.7705   -0.3126 F       1  LIG1       -0.1661
     29 F          -1.3435   -3.0520   -2.1611 F       1  LIG1       -0.1660
     30 F          -2.4033   -2.6957   -0.3026 F       1  LIG1       -0.1660
     31 F          -3.4922   -3.3706   -2.0598 F       1  LIG1       -0.1660
     32 H          -1.3506    1.3696   -3.9129 H       1  LIG1        0.0639
     33 H          -0.9334   -0.9829   -3.2329 H       1  LIG1        0.0630
     34 H         -11.9509   -6.3556    0.3397 H       1  LIG1        0.0629
     35 H         -12.7520   -2.2506    1.3706 H       1  LIG1        0.0629
     36 H          -9.5378   -5.9618    0.6425 H       1  LIG1        0.0642
     37 H         -10.3402   -1.8550    1.6753 H       1  LIG1        0.0642
     38 H          -5.7140    0.5795    2.7556 H       1  LIG1        0.0662
     39 H          -3.4236    2.4966   -3.0832 H       1  LIG1        0.0840
     40 H          -7.4463   -0.4301    4.2219 H       1  LIG1        0.0841
     41 H          -5.4281   -2.6107   -2.1105 H       1  LIG1        0.0864
     42 H          -7.8226   -4.4678    1.1874 H       1  LIG1        0.1543
@<TRIPOS>BOND
     1     1     2   ar
     2     1     8   ar
     3     2    12   ar
     4     3     5   ar
     5     3    11   ar
     6     4     6   ar
     7     4    11   ar
     8     5    15   ar
     9     6    15   ar
    10     7     9   ar
    11     7    13   ar
    12     8    22   ar
    13     9    23   ar
    14    10    16   ar
    15    10    21   ar
    16    11    19    1
    17    12    17   ar
    18    12    20    1
    19    13    14   ar
    20    13    24   ar
    21    14    18   ar
    22    14    21   ar
    23    15    25    1
    24    16    17    1
    25    16    24   ar
    26    17    22   ar
    27    18    23   ar
    28    18    25    1
    29    19    26    1
    30    19    27    1
    31    19    28    1
    32    20    29    1
    33    20    30    1
    34    20    31    1
    35     1    32    1
    36     2    33    1
    37     3    34    1
    38     4    35    1
    39     5    36    1
    40     6    37    1
    41     7    38    1
    42     8    39    1
    43     9    40    1
    44    10    41    1
    45    25    42    1
