@<TRIPOS>MOLECULE
ChEBML311750
 50 52 0 0 0
SMALL
USER_CHARGES

@<TRIPOS>ATOM
      1 C         -12.3616   -3.6970    1.8384 C.ar    1  LIG1       -0.0569
      2 C         -11.6478   -5.7759    0.8356 C.ar    1  LIG1       -0.0569
      3 C         -11.0634   -3.1985    1.7293 C.ar    1  LIG1       -0.0404
      4 C         -10.3496   -5.2774    0.7264 C.ar    1  LIG1       -0.0404
      5 C          -2.8809   -1.1578   -2.2020 C.ar    1  LIG1       -0.0153
      6 C          -2.0111    0.7905   -3.2296 C.ar    1  LIG1        0.0527
      7 C         -12.6538   -4.9856    1.3916 C.ar    1  LIG1       -0.0453
      8 C          -1.9082   -0.5646   -2.9874 C.ar    1  LIG1       -0.0274
      9 C         -10.0575   -3.9888    1.1733 C.ar    1  LIG1        0.0340
     10 C          -3.8919   -0.3566   -1.7105 C.ar    1  LIG1        0.1432
     11 C          -8.5212   -2.1210    0.9695 C.2     1  LIG1        0.3050
     12 C          -5.5110   -0.1467    0.1077 C.3     1  LIG1        0.0289
     13 C          -5.5699   -2.1062   -1.4651 C.3     1  LIG1        0.0289
     14 C          -7.0230   -0.3590    0.0800 C.3     1  LIG1        0.0315
     15 C          -6.4642   -2.7338   -0.3950 C.3     1  LIG1        0.0315
     16 C          -0.7873   -1.3619   -3.5530 C.3     1  LIG1       -0.0381
     17 C         -14.1227   -6.7557    2.4223 C.3     1  LIG1       -0.0587
     18 C         -14.6666   -5.8401    0.1375 C.3     1  LIG1       -0.0587
     19 C         -14.0419   -5.5185    1.5084 C.3     1  LIG1       -0.0219
     20 N          -3.0115    1.5501   -2.7356 N.ar    1  LIG1       -0.1569
     21 N          -3.9673    0.9672   -1.9634 N.ar    1  LIG1       -0.1352
     22 N          -4.8555   -0.9443   -0.9323 N.pl3   1  LIG1       -0.3112
     23 N          -7.3723   -1.7695    0.2360 N.am    1  LIG1       -0.2824
     24 N          -8.7548   -3.4888    1.0634 N.am    1  LIG1       -0.2691
     25 O          -9.2600   -1.2824    1.4958 O.2     1  LIG1       -0.2537
     26 H         -13.1388   -3.0750    2.2749 H       1  LIG1        0.0626
     27 H         -11.8664   -6.7813    0.4856 H       1  LIG1        0.0626
     28 H         -10.8472   -2.1927    2.0804 H       1  LIG1        0.0642
     29 H          -9.5730   -5.9022    0.2925 H       1  LIG1        0.0642
     30 H          -2.8450   -2.2206   -1.9824 H       1  LIG1        0.0663
     31 H          -1.2850    1.3205   -3.8361 H       1  LIG1        0.0862
     32 H          -5.2981    0.9216   -0.0223 H       1  LIG1        0.0485
     33 H          -5.1066   -0.4455    1.0822 H       1  LIG1        0.0485
     34 H          -4.8563   -2.8577   -1.8235 H       1  LIG1        0.0485
     35 H          -6.1822   -1.7940   -2.3209 H       1  LIG1        0.0485
     36 H          -7.4970    0.2368    0.8671 H       1  LIG1        0.0486
     37 H          -7.4424   -0.0293   -0.8784 H       1  LIG1        0.0486
     38 H          -7.0477   -3.5440   -0.8447 H       1  LIG1        0.0486
     39 H          -5.8517   -3.1632    0.4070 H       1  LIG1        0.0486
     40 H          -1.0571   -1.7613   -4.5399 H       1  LIG1        0.0280
     41 H           0.1225   -0.7549   -3.6641 H       1  LIG1        0.0280
     42 H          -0.5239   -2.2060   -2.8998 H       1  LIG1        0.0280
     43 H         -13.5001   -7.5754    2.0474 H       1  LIG1        0.0236
     44 H         -15.1497   -7.1286    2.5022 H       1  LIG1        0.0236
     45 H         -13.7764   -6.5085    3.4321 H       1  LIG1        0.0236
     46 H         -14.0692   -6.5938   -0.3876 H       1  LIG1        0.0236
     47 H         -14.7169   -4.9497   -0.4987 H       1  LIG1        0.0236
     48 H         -15.6842   -6.2325    0.2403 H       1  LIG1        0.0236
     49 H         -14.6987   -4.7565    1.9699 H       1  LIG1        0.0346
     50 H          -7.9995   -4.1627    1.1122 H       1  LIG1        0.1573
@<TRIPOS>BOND
     1     1     3   ar
     2     1     7   ar
     3     2     4   ar
     4     2     7   ar
     5     3     9   ar
     6     4     9   ar
     7     5     8   ar
     8     5    10   ar
     9     6     8   ar
    10     6    20   ar
    11     7    19    1
    12     8    16    1
    13     9    24    1
    14    10    21   ar
    15    10    22    1
    16    11    23   am
    17    11    24   am
    18    11    25    2
    19    12    14    1
    20    12    22    1
    21    13    15    1
    22    13    22    1
    23    14    23    1
    24    15    23    1
    25    17    19    1
    26    18    19    1
    27    20    21   ar
    28     1    26    1
    29     2    27    1
    30     3    28    1
    31     4    29    1
    32     5    30    1
    33     6    31    1
    34    12    32    1
    35    12    33    1
    36    13    34    1
    37    13    35    1
    38    14    36    1
    39    14    37    1
    40    15    38    1
    41    15    39    1
    42    16    40    1
    43    16    41    1
    44    16    42    1
    45    17    43    1
    46    17    44    1
    47    17    45    1
    48    18    46    1
    49    18    47    1
    50    18    48    1
    51    19    49    1
    52    24    50    1
