@<TRIPOS>MOLECULE
ChEBML347883
 33 36 0 0 0
SMALL
USER_CHARGES

@<TRIPOS>ATOM
      1 C         -10.3426   -5.1744    0.4638 C.ar    1  LIG1       -0.0376
      2 C          -4.3630   -2.5784   -1.8228 C.ar    1  LIG1       -0.0373
      3 C         -11.6797   -5.5305    0.6621 C.ar    1  LIG1       -0.0302
      4 C          -3.3492   -1.9059   -2.5111 C.ar    1  LIG1       -0.0244
      5 C         -12.0853   -3.5143    1.9535 C.ar    1  LIG1       -0.0229
      6 C          -3.7382    0.1168   -1.2247 C.ar    1  LIG1       -0.0171
      7 C          -9.9603   -2.0183    2.1778 C.ar    1  LIG1       -0.0275
      8 C          -5.6545   -0.1554    0.5239 C.ar    1  LIG1       -0.0275
      9 C         -10.7413   -3.1346    1.7670 C.ar    1  LIG1        0.0003
     10 C          -4.7644   -0.5405   -0.5175 C.ar    1  LIG1        0.0007
     11 C          -9.9027   -3.9717    1.0279 C.ar    1  LIG1        0.0379
     12 C          -5.0526   -1.8701   -0.8322 C.ar    1  LIG1        0.0380
     13 C         -12.5394   -4.7147    1.3951 C.ar    1  LIG1        0.0720
     14 C          -3.0399   -0.5791   -2.2183 C.ar    1  LIG1        0.1235
     15 C          -8.6863   -2.1961    1.6896 C.ar    1  LIG1        0.0811
     16 C          -6.4511   -1.2385    0.8156 C.ar    1  LIG1        0.0811
     17 C          -7.5513   -1.3418    1.8418 C.2     1  LIG1        0.2206
     18 N          -8.6615   -3.3769    0.9972 N.ar    1  LIG1       -0.3112
     19 N          -6.0805   -2.2680   -0.0073 N.ar    1  LIG1       -0.3112
     20 O          -7.4111   -0.6207    2.8570 O.2     1  LIG1       -0.2856
     21 O         -13.8380   -5.0891    1.5712 O.3     1  LIG1       -0.3609
     22 F          -2.0622    0.0388   -2.8952 F       1  LIG1       -0.2069
     23 H          -9.6742   -5.8099   -0.1073 H       1  LIG1        0.0643
     24 H          -4.6036   -3.6115   -2.0514 H       1  LIG1        0.0644
     25 H         -12.0471   -6.4603    0.2341 H       1  LIG1        0.0651
     26 H          -2.7945   -2.4268   -3.2874 H       1  LIG1        0.0654
     27 H         -12.7622   -2.8834    2.5234 H       1  LIG1        0.0657
     28 H          -3.4861    1.1505   -1.0067 H       1  LIG1        0.0660
     29 H         -10.2985   -1.1768    2.7680 H       1  LIG1        0.0651
     30 H          -5.7035    0.8121    1.0054 H       1  LIG1        0.0651
     31 H          -7.8511   -3.7597    0.5297 H       1  LIG1        0.1529
     32 H          -6.4993   -3.1881   -0.0120 H       1  LIG1        0.1529
     33 H         -14.3089   -4.4252    2.0986 H       1  LIG1        0.2182
@<TRIPOS>BOND
     1     1     3   ar
     2     1    11   ar
     3     2     4   ar
     4     2    12   ar
     5     3    13   ar
     6     4    14   ar
     7     5     9   ar
     8     5    13   ar
     9     6    10   ar
    10     6    14   ar
    11     7     9   ar
    12     7    15   ar
    13     8    10   ar
    14     8    16   ar
    15     9    11   ar
    16    10    12   ar
    17    11    18   ar
    18    12    19   ar
    19    13    21    1
    20    14    22    1
    21    15    17    1
    22    15    18   ar
    23    16    17    1
    24    16    19   ar
    25    17    20    2
    26     1    23    1
    27     2    24    1
    28     3    25    1
    29     4    26    1
    30     5    27    1
    31     6    28    1
    32     7    29    1
    33     8    30    1
    34    18    31    1
    35    19    32    1
    36    21    33    1
