@<TRIPOS>MOLECULE
ChEBML512902
 42 44 0 0 0
SMALL
USER_CHARGES

@<TRIPOS>ATOM
      1 C          -1.1082    1.2526   -3.0807 C.ar    1  LIG1       -0.0622
      2 C         -12.5985   -4.8222    2.1383 C.ar    1  LIG1       -0.0615
      3 C          -2.3016    1.8293   -3.5151 C.ar    1  LIG1       -0.0620
      4 C          -1.1017   -0.0548   -2.5944 C.ar    1  LIG1       -0.0620
      5 C         -11.8545   -5.6296    1.2802 C.ar    1  LIG1       -0.0603
      6 C         -12.0743   -3.6184    2.6231 C.ar    1  LIG1       -0.0530
      7 C          -3.4887    1.0987   -3.4631 C.ar    1  LIG1       -0.0590
      8 C          -2.2888   -0.7854   -2.5424 C.ar    1  LIG1       -0.0590
      9 C         -10.5668   -5.2617    0.8800 C.ar    1  LIG1       -0.0402
     10 C          -9.9529   -2.1039    2.5221 C.ar    1  LIG1       -0.0262
     11 C         -10.7782   -3.2266    2.2335 C.ar    1  LIG1       -0.0022
     12 C          -3.4823   -0.2087   -2.9768 C.ar    1  LIG1       -0.0480
     13 C         -10.0558   -4.0557    1.3725 C.ar    1  LIG1        0.0378
     14 C          -8.7675   -2.2701    1.8438 C.ar    1  LIG1        0.0944
     15 C          -7.5841   -1.3722    1.8218 C.2     1  LIG1        0.2572
     16 C          -4.7647   -0.9987   -2.9202 C.3     1  LIG1       -0.0278
     17 C          -5.4889   -0.8077   -1.5851 C.3     1  LIG1       -0.0477
     18 C          -4.6036   -1.2338   -0.4103 C.3     1  LIG1       -0.0372
     19 C          -5.2885   -1.0444    0.9392 C.3     1  LIG1        0.0114
     20 N          -8.8391   -3.4501    1.1532 N.ar    1  LIG1       -0.3101
     21 N          -6.5115   -1.7913    1.0426 N.am    1  LIG1       -0.3103
     22 O          -7.6002   -0.3417    2.4900 O.2     1  LIG1       -0.2704
     23 H          -0.1837    1.8213   -3.1225 H       1  LIG1        0.0622
     24 H         -13.5980   -5.1291    2.4349 H       1  LIG1        0.0623
     25 H          -2.3067    2.8469   -3.8947 H       1  LIG1        0.0623
     26 H          -0.1726   -0.5044   -2.2571 H       1  LIG1        0.0623
     27 H         -12.2812   -6.5604    0.9160 H       1  LIG1        0.0623
     28 H         -12.6654   -2.9979    3.2912 H       1  LIG1        0.0629
     29 H          -4.4139    1.5562   -3.8035 H       1  LIG1        0.0625
     30 H          -2.2742   -1.8033   -2.1619 H       1  LIG1        0.0625
     31 H          -9.9877   -5.8907    0.2123 H       1  LIG1        0.0642
     32 H         -10.2039   -1.2660    3.1589 H       1  LIG1        0.0651
     33 H          -4.5447   -2.0617   -3.0823 H       1  LIG1        0.0316
     34 H          -5.4154   -0.6963   -3.7504 H       1  LIG1        0.0316
     35 H          -6.4158   -1.3950   -1.5771 H       1  LIG1        0.0270
     36 H          -5.7798    0.2437   -1.4714 H       1  LIG1        0.0270
     37 H          -4.3431   -2.2931   -0.5231 H       1  LIG1        0.0283
     38 H          -3.6654   -0.6657   -0.4325 H       1  LIG1        0.0283
     39 H          -5.5453    0.0098    1.0834 H       1  LIG1        0.0467
     40 H          -4.6365   -1.3520    1.7628 H       1  LIG1        0.0467
     41 H          -8.1064   -3.8258    0.5668 H       1  LIG1        0.1529
     42 H          -6.5541   -2.6916    0.5679 H       1  LIG1        0.1497
@<TRIPOS>BOND
     1     1     3   ar
     2     1     4   ar
     3     2     5   ar
     4     2     6   ar
     5     3     7   ar
     6     4     8   ar
     7     5     9   ar
     8     6    11   ar
     9     7    12   ar
    10     8    12   ar
    11     9    13   ar
    12    10    11   ar
    13    10    14   ar
    14    11    13   ar
    15    12    16    1
    16    13    20   ar
    17    14    15    1
    18    14    20   ar
    19    15    21   am
    20    15    22    2
    21    16    17    1
    22    17    18    1
    23    18    19    1
    24    19    21    1
    25     1    23    1
    26     2    24    1
    27     3    25    1
    28     4    26    1
    29     5    27    1
    30     6    28    1
    31     7    29    1
    32     8    30    1
    33     9    31    1
    34    10    32    1
    35    16    33    1
    36    16    34    1
    37    17    35    1
    38    17    36    1
    39    18    37    1
    40    18    38    1
    41    19    39    1
    42    19    40    1
    43    20    41    1
    44    21    42    1
