@<TRIPOS>MOLECULE
ChEBML311743
 53 55 0 0 0
SMALL
USER_CHARGES

@<TRIPOS>ATOM
      1 C         -11.9844   -2.9689    0.9377 C.ar    1  LIG1       -0.0566
      2 C         -11.6375   -5.3560    0.8032 C.ar    1  LIG1       -0.0566
      3 C         -10.6183   -2.7820    1.1481 C.ar    1  LIG1       -0.0404
      4 C         -10.2712   -5.1692    1.0136 C.ar    1  LIG1       -0.0404
      5 C          -1.9903   -0.3701   -3.2177 C.ar    1  LIG1       -0.0163
      6 C         -12.4941   -4.2558    0.7652 C.ar    1  LIG1       -0.0425
      7 C          -2.8109   -1.0914   -2.3684 C.ar    1  LIG1       -0.0057
      8 C          -9.7617   -3.8823    1.1862 C.ar    1  LIG1        0.0340
      9 C          -3.8761   -0.4339   -1.7865 C.ar    1  LIG1        0.1460
     10 C          -2.2895    0.9609   -3.4291 C.ar    1  LIG1        0.1516
     11 C          -7.8734   -2.4281    1.6443 C.2     1  LIG1        0.3050
     12 C          -4.8357   -0.6846    0.4468 C.3     1  LIG1        0.0289
     13 C          -5.7883   -1.9207   -1.5231 C.3     1  LIG1        0.0289
     14 C          -6.3025   -0.6744    0.8714 C.3     1  LIG1        0.0315
     15 C          -6.4774   -2.7698   -0.4539 C.3     1  LIG1        0.0315
     16 C          -2.5233   -2.5316   -2.1130 C.3     1  LIG1       -0.0361
     17 C         -14.4349   -3.7168   -0.7475 C.3     1  LIG1       -0.0561
     18 C         -14.7919   -3.9064    1.7369 C.3     1  LIG1       -0.0561
     19 C         -14.4097   -5.9419    0.3615 C.3     1  LIG1       -0.0561
     20 C         -13.9547   -4.4554    0.5402 C.3     1  LIG1       -0.0132
     21 N          -4.1452    0.8696   -2.0114 N.ar    1  LIG1       -0.1335
     22 N          -3.3389    1.5784   -2.8464 N.ar    1  LIG1       -0.1367
     23 N          -4.7001   -1.1322   -0.9420 N.pl3   1  LIG1       -0.3110
     24 N          -6.9207   -1.9884    0.7059 N.am    1  LIG1       -0.2824
     25 N          -8.3908   -3.6951    1.3971 N.am    1  LIG1       -0.2691
     26 O          -8.2178   -1.7470    2.6157 O.2     1  LIG1       -0.2537
     27 CL         -1.3412    1.9449   -4.4611 Cl      1  LIG1       -0.0602
     28 H         -12.6449   -2.1060    0.9118 H       1  LIG1        0.0626
     29 H         -12.0260   -6.3623    0.6705 H       1  LIG1        0.0626
     30 H         -10.2321   -1.7745    1.2809 H       1  LIG1        0.0642
     31 H          -9.6128   -6.0338    1.0425 H       1  LIG1        0.0642
     32 H          -1.1388   -0.8392   -3.7009 H       1  LIG1        0.0660
     33 H          -4.4188    0.3215    0.5791 H       1  LIG1        0.0485
     34 H          -4.2625   -1.3642    1.0889 H       1  LIG1        0.0485
     35 H          -5.4007   -2.5787   -2.3103 H       1  LIG1        0.0485
     36 H          -6.5195   -1.2447   -1.9849 H       1  LIG1        0.0485
     37 H          -6.3863   -0.3460    1.9126 H       1  LIG1        0.0486
     38 H          -6.8778    0.0297    0.2581 H       1  LIG1        0.0486
     39 H          -7.3370   -3.2807   -0.8998 H       1  LIG1        0.0486
     40 H          -5.7887   -3.5348   -0.0753 H       1  LIG1        0.0486
     41 H          -1.8537   -2.6411   -1.2508 H       1  LIG1        0.0281
     42 H          -3.4451   -3.0928   -1.9104 H       1  LIG1        0.0281
     43 H          -2.0492   -3.0044   -2.9834 H       1  LIG1        0.0281
     44 H         -15.5068   -3.8477   -0.9362 H       1  LIG1        0.0239
     45 H         -14.2505   -2.6388   -0.6842 H       1  LIG1        0.0239
     46 H         -13.8935   -4.0922   -1.6240 H       1  LIG1        0.0239
     47 H         -15.8658   -4.0512    1.5753 H       1  LIG1        0.0239
     48 H         -14.5427   -4.3933    2.6871 H       1  LIG1        0.0239
     49 H         -14.6197   -2.8304    1.8582 H       1  LIG1        0.0239
     50 H         -15.4902   -6.0366    0.1992 H       1  LIG1        0.0239
     51 H         -13.9134   -6.4006   -0.5017 H       1  LIG1        0.0239
     52 H         -14.1648   -6.5342    1.2510 H       1  LIG1        0.0239
     53 H          -7.8121   -4.5269    1.4159 H       1  LIG1        0.1573
@<TRIPOS>BOND
     1     1     3   ar
     2     1     6   ar
     3     2     4   ar
     4     2     6   ar
     5     3     8   ar
     6     4     8   ar
     7     5     7   ar
     8     5    10   ar
     9     6    20    1
    10     7     9   ar
    11     7    16    1
    12     8    25    1
    13     9    21   ar
    14     9    23    1
    15    10    22   ar
    16    10    27    1
    17    11    24   am
    18    11    25   am
    19    11    26    2
    20    12    14    1
    21    12    23    1
    22    13    15    1
    23    13    23    1
    24    14    24    1
    25    15    24    1
    26    17    20    1
    27    18    20    1
    28    19    20    1
    29    21    22   ar
    30     1    28    1
    31     2    29    1
    32     3    30    1
    33     4    31    1
    34     5    32    1
    35    12    33    1
    36    12    34    1
    37    13    35    1
    38    13    36    1
    39    14    37    1
    40    14    38    1
    41    15    39    1
    42    15    40    1
    43    16    41    1
    44    16    42    1
    45    16    43    1
    46    17    44    1
    47    17    45    1
    48    17    46    1
    49    18    47    1
    50    18    48    1
    51    18    49    1
    52    19    50    1
    53    19    51    1
    54    19    52    1
    55    25    53    1
