@<TRIPOS>MOLECULE
ChEBML332812
 41 44 0 0 0
SMALL
USER_CHARGES

@<TRIPOS>ATOM
      1 C         -12.1350   -5.1520    0.1677 C.ar    1  LIG1       -0.0616
      2 C         -11.0345   -5.2884   -0.6698 C.ar    1  LIG1       -0.0615
      3 C          -3.9123    1.3422   -2.5232 C.ar    1  LIG1       -0.0619
      4 C          -2.7727    1.0888   -3.2864 C.ar    1  LIG1       -0.0616
      5 C         -12.1154   -4.2068    1.1920 C.ar    1  LIG1       -0.0543
      6 C          -9.9124   -4.4794   -0.4846 C.ar    1  LIG1       -0.0517
      7 C         -10.9810   -2.4344    2.4265 C.ar    1  LIG1       -0.0534
      8 C          -9.8726   -1.6146    2.6327 C.ar    1  LIG1       -0.0477
      9 C          -4.3676    0.3892   -1.6120 C.ar    1  LIG1       -0.0568
     10 C          -2.0884   -0.1178   -3.1388 C.ar    1  LIG1       -0.0497
     11 C         -10.9946   -3.3843    1.3929 C.ar    1  LIG1       -0.0157
     12 C          -9.8667   -3.5142    0.5447 C.ar    1  LIG1        0.0133
     13 C          -8.7615   -1.7384    1.8014 C.ar    1  LIG1        0.0535
     14 C          -3.6833   -0.8173   -1.4642 C.ar    1  LIG1       -0.0187
     15 C          -2.5438   -1.0708   -2.2276 C.ar    1  LIG1        0.0602
     16 C          -8.7501   -2.6748    0.7668 C.ar    1  LIG1        0.1026
     17 C          -6.4609   -1.0877    1.0764 C.ar    1  LIG1        0.0317
     18 C          -7.5849   -0.8813    2.0060 C.ar    1  LIG1        0.1920
     19 C          -6.5462   -2.0160    0.1105 C.ar    1  LIG1        0.1419
     20 C          -4.1911   -1.8276   -0.4766 C.3     1  LIG1        0.0361
     21 C          -1.7951   -2.3554   -2.0874 C.3     1  LIG1        0.4163
     22 N          -5.5325   -2.2449   -0.7760 N.pl3   1  LIG1       -0.3209
     23 O          -7.5312   -0.0419    2.8944 O.2     1  LIG1       -0.2889
     24 O          -7.6653   -2.8176   -0.0692 O.2     1  LIG1       -0.2943
     25 F          -0.7061   -2.4441   -2.9060 F       1  LIG1       -0.1661
     26 F          -1.3146   -2.5711   -0.8281 F       1  LIG1       -0.1661
     27 F          -2.5641   -3.4436   -2.3792 F       1  LIG1       -0.1661
     28 H         -13.0090   -5.7805    0.0251 H       1  LIG1        0.0623
     29 H         -11.0468   -6.0242   -1.4686 H       1  LIG1        0.0623
     30 H          -4.4451    2.2812   -2.6390 H       1  LIG1        0.0623
     31 H          -2.4189    1.8311   -3.9960 H       1  LIG1        0.0623
     32 H         -12.9885   -4.1177    1.8356 H       1  LIG1        0.0629
     33 H          -9.0688   -4.6133   -1.1587 H       1  LIG1        0.0630
     34 H         -11.8402   -2.3236    3.0855 H       1  LIG1        0.0629
     35 H          -9.8962   -0.8906    3.4422 H       1  LIG1        0.0631
     36 H          -5.2575    0.5957   -1.0231 H       1  LIG1        0.0626
     37 H          -1.2012   -0.3058   -3.7378 H       1  LIG1        0.0629
     38 H          -5.5797   -0.4688    1.2053 H       1  LIG1        0.0706
     39 H          -3.5537   -2.7186   -0.4733 H       1  LIG1        0.0517
     40 H          -4.1862   -1.4204    0.5399 H       1  LIG1        0.0517
     41 H          -5.7727   -2.7068   -1.6197 H       1  LIG1        0.1488
@<TRIPOS>BOND
     1     1     2   ar
     2     1     5   ar
     3     2     6   ar
     4     3     4   ar
     5     3     9   ar
     6     4    10   ar
     7     5    11   ar
     8     6    12   ar
     9     7     8   ar
    10     7    11   ar
    11     8    13   ar
    12     9    14   ar
    13    10    15   ar
    14    11    12   ar
    15    12    16   ar
    16    13    16   ar
    17    13    18   ar
    18    14    15   ar
    19    14    20    1
    20    15    21    1
    21    16    24   ar
    22    17    18   ar
    23    17    19   ar
    24    18    23    2
    25    19    22    1
    26    19    24   ar
    27    20    22    1
    28    21    25    1
    29    21    26    1
    30    21    27    1
    31     1    28    1
    32     2    29    1
    33     3    30    1
    34     4    31    1
    35     5    32    1
    36     6    33    1
    37     7    34    1
    38     8    35    1
    39     9    36    1
    40    10    37    1
    41    17    38    1
    42    20    39    1
    43    20    40    1
    44    22    41    1
