@<TRIPOS>MOLECULE
ChEBML457832
 38 42 0 0 0
SMALL
USER_CHARGES

@<TRIPOS>ATOM
      1 C         -11.5135   -5.4430    0.5648 C.ar    1  LIG1       -0.0600
      2 C         -12.4092   -4.6320    1.2530 C.ar    1  LIG1       -0.0610
      3 C          -5.9874    0.3776    2.8158 C.ar    1  LIG1       -0.0597
      4 C          -7.1325   -0.4078    2.6835 C.ar    1  LIG1       -0.0521
      5 C         -10.1761   -5.0623    0.4214 C.ar    1  LIG1       -0.0352
      6 C          -4.9131    0.1967    1.9447 C.ar    1  LIG1       -0.0407
      7 C         -11.9944   -3.4219    1.8149 C.ar    1  LIG1       -0.0460
      8 C          -1.3290   -1.6421   -1.6274 C.ar    1  LIG1       -0.0340
      9 C          -6.1289   -1.5553    0.8091 C.ar    1  LIG1       -0.0308
     10 C          -0.4715   -1.5398   -2.7022 C.ar    1  LIG1       -0.0049
     11 C          -4.0290    1.0728   -2.9232 C.ar    1  LIG1        0.1194
     12 C          -2.4060   -0.7472   -1.8542 C.ar    1  LIG1        0.0567
     13 C          -7.2032   -1.3743    1.6802 C.ar    1  LIG1        0.0089
     14 C          -9.7308   -3.8444    0.9794 C.ar    1  LIG1        0.0783
     15 C          -4.9839   -0.7697    0.9413 C.ar    1  LIG1        0.0321
     16 C         -10.6497   -3.0456    1.6668 C.ar    1  LIG1        0.0395
     17 C          -2.1654   -0.1244   -3.0728 C.ar    1  LIG1        0.1339
     18 C          -3.5691   -0.3756   -1.1815 C.ar    1  LIG1        0.1343
     19 C          -8.3887   -2.1869    1.5436 C.ar    1  LIG1        0.1089
     20 N          -2.9392    0.7993   -3.6690 N.ar    1  LIG1       -0.2206
     21 N          -4.3900    0.5498   -1.7297 N.ar    1  LIG1       -0.2206
     22 N          -8.4403   -3.3391    0.9172 N.ar    1  LIG1       -0.2399
     23 N          -0.9894   -0.6164   -3.5738 N.ar    1  LIG1       -0.3054
     24 N          -3.8974   -0.9523    0.0609 N.pl3   1  LIG1       -0.2989
     25 S          -9.8487   -1.6303    2.2398 S.2     1  LIG1       -0.0673
     26 H         -11.8543   -6.3802    0.1338 H       1  LIG1        0.0623
     27 H         -13.4457   -4.9423    1.3563 H       1  LIG1        0.0623
     28 H          -5.9322    1.1301    3.5970 H       1  LIG1        0.0623
     29 H          -7.9616   -0.2547    3.3706 H       1  LIG1        0.0630
     30 H          -9.4851   -5.7037   -0.1180 H       1  LIG1        0.0646
     31 H          -4.0258    0.8144    2.0570 H       1  LIG1        0.0642
     32 H         -12.6992   -2.7943    2.3523 H       1  LIG1        0.0635
     33 H          -1.1867   -2.2930   -0.7756 H       1  LIG1        0.0645
     34 H          -6.1790   -2.3084    0.0248 H       1  LIG1        0.0650
     35 H           0.4596   -2.0421   -2.9236 H       1  LIG1        0.0790
     36 H          -4.7077    1.8116   -3.3356 H       1  LIG1        0.1063
     37 H          -0.5683   -0.3403   -4.4499 H       1  LIG1        0.1537
     38 H          -3.2193   -1.6344    0.3876 H       1  LIG1        0.1543
@<TRIPOS>BOND
     1     1     2   ar
     2     1     5   ar
     3     2     7   ar
     4     3     4   ar
     5     3     6   ar
     6     4    13   ar
     7     5    14   ar
     8     6    15   ar
     9     7    16   ar
    10     8    10   ar
    11     8    12   ar
    12     9    13   ar
    13     9    15   ar
    14    10    23   ar
    15    11    20   ar
    16    11    21   ar
    17    12    17   ar
    18    12    18   ar
    19    13    19    1
    20    14    16   ar
    21    14    22   ar
    22    15    24    1
    23    16    25   ar
    24    17    20   ar
    25    17    23   ar
    26    18    21   ar
    27    18    24    1
    28    19    22   ar
    29    19    25   ar
    30     1    26    1
    31     2    27    1
    32     3    28    1
    33     4    29    1
    34     5    30    1
    35     6    31    1
    36     7    32    1
    37     8    33    1
    38     9    34    1
    39    10    35    1
    40    11    36    1
    41    23    37    1
    42    24    38    1
