@<TRIPOS>MOLECULE
ChEBML429007
 29 30 0 0 0
SMALL
USER_CHARGES

@<TRIPOS>ATOM
      1 C          -2.2696    0.0507   -3.2030 C.ar    1  LIG1       -0.0573
      2 C          -2.4436    1.4291   -3.1505 C.ar    1  LIG1       -0.0437
      3 C          -8.3040   -3.5067    1.4765 C.ar    1  LIG1       -0.0496
      4 C          -9.8145   -1.6279    1.6352 C.ar    1  LIG1       -0.0496
      5 C          -9.3901   -4.3658    1.3098 C.ar    1  LIG1       -0.0428
      6 C         -10.9007   -2.4869    1.4685 C.ar    1  LIG1       -0.0428
      7 C          -2.9009   -0.7603   -2.2664 C.ar    1  LIG1       -0.0216
      8 C          -3.2525    1.9431   -2.1499 C.ar    1  LIG1        0.0290
      9 C          -8.5162   -2.1377    1.6392 C.ar    1  LIG1        0.0220
     10 C         -10.6885   -3.8560    1.3059 C.ar    1  LIG1        0.0406
     11 C          -3.6892   -0.1483   -1.3052 C.ar    1  LIG1        0.1211
     12 C          -6.0750   -1.6007    1.1713 C.2     1  LIG1       -0.0001
     13 C          -5.4976   -0.7854    0.2812 C.2     1  LIG1       -0.0019
     14 C          -7.3841   -1.2416    1.8126 C.2     1  LIG1        0.1866
     15 N          -3.8820    1.1872   -1.2226 N.ar    1  LIG1       -0.2413
     16 N          -4.3197   -0.9802   -0.3668 N.pl3   1  LIG1       -0.3059
     17 O          -7.4850   -0.2124    2.4977 O.2     1  LIG1       -0.2891
     18 CL        -12.0282   -4.9157    1.0989 Cl      1  LIG1       -0.0843
     19 H          -1.6423   -0.3908   -3.9717 H       1  LIG1        0.0624
     20 H          -1.9612    2.0810   -3.8699 H       1  LIG1        0.0639
     21 H          -7.2965   -3.9147    1.4785 H       1  LIG1        0.0631
     22 H          -9.9916   -0.5627    1.7609 H       1  LIG1        0.0631
     23 H          -9.2101   -5.4304    1.1835 H       1  LIG1        0.0638
     24 H         -11.9068   -2.0754    1.4678 H       1  LIG1        0.0638
     25 H          -2.7711   -1.8371   -2.3003 H       1  LIG1        0.0659
     26 H          -3.4209    3.0118   -2.0658 H       1  LIG1        0.0840
     27 H          -5.5973   -2.5320    1.4539 H       1  LIG1        0.0677
     28 H          -5.9543    0.1533   -0.0130 H       1  LIG1        0.0791
     29 H          -3.8404   -1.8412   -0.1356 H       1  LIG1        0.1537
@<TRIPOS>BOND
     1     1     2   ar
     2     1     7   ar
     3     2     8   ar
     4     3     5   ar
     5     3     9   ar
     6     4     6   ar
     7     4     9   ar
     8     5    10   ar
     9     6    10   ar
    10     7    11   ar
    11     8    15   ar
    12     9    14    1
    13    10    18    1
    14    11    15   ar
    15    11    16    1
    16    12    13    2
    17    12    14    1
    18    13    16    1
    19    14    17    2
    20     1    19    1
    21     2    20    1
    22     3    21    1
    23     4    22    1
    24     5    23    1
    25     6    24    1
    26     7    25    1
    27     8    26    1
    28    12    27    1
    29    13    28    1
    30    16    29    1
