@<TRIPOS>MOLECULE
ChEBML368819
 58 63 0 0 0
SMALL
USER_CHARGES

@<TRIPOS>ATOM
      1 C          -1.4132    0.8200   -3.6907 C.ar    1  LIG1       -0.0622
      2 C          -1.2210   -0.1433   -2.7004 C.ar    1  LIG1       -0.0616
      3 C          -2.6692    1.4019   -3.8634 C.ar    1  LIG1       -0.0616
      4 C          -6.5405   -1.8093   -0.7982 C.ar    1  LIG1       -0.0501
      5 C          -2.2847   -0.5248   -1.8827 C.ar    1  LIG1       -0.0544
      6 C          -3.7328    1.0204   -3.0458 C.ar    1  LIG1       -0.0544
      7 C          -5.4641   -1.4004   -1.5955 C.ar    1  LIG1       -0.0536
      8 C         -11.7173   -5.7461    1.3731 C.ar    1  LIG1       -0.0519
      9 C         -10.4377   -5.3661    0.9581 C.ar    1  LIG1       -0.0397
     10 C         -12.0793   -3.5884    2.4269 C.ar    1  LIG1       -0.0446
     11 C         -10.0342   -1.9890    2.1738 C.ar    1  LIG1       -0.0293
     12 C          -4.8707    0.3494   -0.0098 C.ar    1  LIG1       -0.0307
     13 C          -6.7805   -1.1274    0.4064 C.ar    1  LIG1        0.0265
     14 C         -10.7928   -3.1830    2.0193 C.ar    1  LIG1       -0.0018
     15 C          -3.5406    0.0571   -2.0553 C.ar    1  LIG1       -0.0183
     16 C          -4.6446   -0.3391   -1.2062 C.ar    1  LIG1       -0.0164
     17 C         -12.5271   -4.8726    2.0962 C.ar    1  LIG1       -0.0035
     18 C         -10.0034   -4.0794    1.2958 C.ar    1  LIG1        0.0377
     19 C          -5.9489   -0.0741    0.7701 C.ar    1  LIG1        0.0576
     20 C          -7.7171   -1.2132    1.4588 C.ar    1  LIG1        0.1116
     21 C          -8.8214   -2.1801    1.5530 C.ar    1  LIG1        0.0593
     22 C         -17.0962   -6.2902   -0.2360 C.3     1  LIG1       -0.0434
     23 C         -15.6452   -6.4403   -0.6808 C.3     1  LIG1       -0.0134
     24 C         -17.2612   -5.1157    0.7224 C.3     1  LIG1       -0.0134
     25 C         -14.6985   -6.5351    0.5070 C.3     1  LIG1       -0.0340
     26 C         -16.3087   -5.2149    1.9050 C.3     1  LIG1       -0.0340
     27 C         -13.8955   -5.3118    2.5267 C.3     1  LIG1       -0.0083
     28 N          -7.5106   -0.3018    2.4120 N.ar    1  LIG1       -0.1816
     29 N          -8.8123   -3.4438    1.0262 N.ar    1  LIG1       -0.3126
     30 N          -6.4361    0.3721    1.9690 N.ar    1  LIG1       -0.2372
     31 N         -14.8903   -5.3312    1.3989 N.4     1  LIG1        0.2493
     32 H          -0.5844    1.1182   -4.3261 H       1  LIG1        0.0622
     33 H          -0.2428   -0.5951   -2.5648 H       1  LIG1        0.0623
     34 H          -2.8192    2.1530   -4.6334 H       1  LIG1        0.0623
     35 H          -7.1679   -2.6377   -1.1133 H       1  LIG1        0.0630
     36 H          -2.1188   -1.2769   -1.1149 H       1  LIG1        0.0629
     37 H          -4.7061    1.4830   -3.1916 H       1  LIG1        0.0629
     38 H          -5.2780   -1.9291   -2.5285 H       1  LIG1        0.0629
     39 H         -12.0764   -6.7419    1.1224 H       1  LIG1        0.0628
     40 H          -9.8075   -6.0467    0.3955 H       1  LIG1        0.0643
     41 H         -12.7139   -2.9098    2.9909 H       1  LIG1        0.0635
     42 H         -10.3485   -1.0895    2.6867 H       1  LIG1        0.0650
     43 H          -4.2425    1.1762    0.3062 H       1  LIG1        0.0650
     44 H         -17.7402   -6.1488   -1.1111 H       1  LIG1        0.0271
     45 H         -17.4238   -7.2135    0.2576 H       1  LIG1        0.0271
     46 H         -15.5427   -7.3349   -1.3053 H       1  LIG1        0.0320
     47 H         -15.3661   -5.5826   -1.3057 H       1  LIG1        0.0320
     48 H         -17.0812   -4.1773    0.1830 H       1  LIG1        0.0320
     49 H         -18.2942   -5.0801    1.0860 H       1  LIG1        0.0320
     50 H         -14.8879   -7.4304    1.1098 H       1  LIG1        0.0814
     51 H         -13.6566   -6.5328    0.1706 H       1  LIG1        0.0814
     52 H         -16.3647   -4.3129    2.5232 H       1  LIG1        0.0814
     53 H         -16.5153   -6.0964    2.5222 H       1  LIG1        0.0814
     54 H         -13.8733   -6.3244    2.9440 H       1  LIG1        0.0869
     55 H         -14.3023   -4.6438    3.2936 H       1  LIG1        0.0869
     56 H          -8.0440   -3.8539    0.5127 H       1  LIG1        0.1528
     57 H          -6.0807    1.1314    2.5365 H       1  LIG1        0.1755
     58 H         -14.6993   -4.4953    0.8293 H       1  LIG1        0.2007
@<TRIPOS>BOND
     1     1     2   ar
     2     1     3   ar
     3     2     5   ar
     4     3     6   ar
     5     4     7   ar
     6     4    13   ar
     7     5    15   ar
     8     6    15   ar
     9     7    16   ar
    10     8     9   ar
    11     8    17   ar
    12     9    18   ar
    13    10    14   ar
    14    10    17   ar
    15    11    14   ar
    16    11    21   ar
    17    12    16   ar
    18    12    19   ar
    19    13    19   ar
    20    13    20   ar
    21    14    18   ar
    22    15    16    1
    23    17    27    1
    24    18    29   ar
    25    19    30   ar
    26    20    21    1
    27    20    28   ar
    28    21    29   ar
    29    22    23    1
    30    22    24    1
    31    23    25    1
    32    24    26    1
    33    25    31    1
    34    26    31    1
    35    27    31    1
    36    28    30   ar
    37     1    32    1
    38     2    33    1
    39     3    34    1
    40     4    35    1
    41     5    36    1
    42     6    37    1
    43     7    38    1
    44     8    39    1
    45     9    40    1
    46    10    41    1
    47    11    42    1
    48    12    43    1
    49    22    44    1
    50    22    45    1
    51    23    46    1
    52    23    47    1
    53    24    48    1
    54    24    49    1
    55    25    50    1
    56    25    51    1
    57    26    52    1
    58    26    53    1
    59    27    54    1
    60    27    55    1
    61    29    56    1
    62    30    57    1
    63    31    58    1
