@<TRIPOS>MOLECULE
ChEBML959031
 39 42 0 0 0
SMALL
USER_CHARGES

@<TRIPOS>ATOM
      1 C         -11.2873   -5.3342    0.2717 C.ar    1  LIG1       -0.0600
      2 C         -12.3994   -4.7614    0.8773 C.ar    1  LIG1       -0.0610
      3 C          -2.7119   -0.6148   -3.6098 C.ar    1  LIG1       -0.0573
      4 C          -2.4908    0.7563   -3.6137 C.ar    1  LIG1       -0.0437
      5 C         -10.0565   -4.7671    0.3550 C.ar    1  LIG1       -0.0352
      6 C         -12.2554   -3.5842    1.5844 C.ar    1  LIG1       -0.0460
      7 C          -3.2972   -1.1859   -2.4944 C.ar    1  LIG1       -0.0217
      8 C          -2.8586    1.5036   -2.5130 C.ar    1  LIG1        0.0290
      9 C          -9.8608   -3.5581    1.0705 C.ar    1  LIG1        0.0785
     10 C         -11.0144   -2.9993    1.6771 C.ar    1  LIG1        0.0397
     11 C          -3.6428   -0.3719   -1.4200 C.ar    1  LIG1        0.1199
     12 C          -8.6638   -1.7581    1.9342 C.ar    1  LIG1        0.1643
     13 C          -7.4914   -0.9014    2.2115 C.2     1  LIG1        0.2712
     14 C          -4.4784    0.1682    0.6457 C.3     1  LIG1        0.0288
     15 C          -5.5380   -1.4518   -0.7134 C.3     1  LIG1        0.0288
     16 C          -5.1080   -0.3828    1.9291 C.3     1  LIG1        0.0304
     17 C          -6.2361   -2.1141    0.4845 C.3     1  LIG1        0.0304
     18 N          -3.4205    0.9325   -1.4642 N.ar    1  LIG1       -0.2414
     19 N          -8.7245   -2.8765    1.2460 N.ar    1  LIG1       -0.2349
     20 N          -4.2317   -0.9325   -0.2927 N.pl3   1  LIG1       -0.3127
     21 N          -6.3282   -1.1220    1.5675 N.am    1  LIG1       -0.2929
     22 O          -7.5752   -0.0012    3.0238 O.2     1  LIG1       -0.2692
     23 S         -10.3603   -1.5424    2.4554 S.2     1  LIG1       -0.0624
     24 H         -11.4053   -6.2550   -0.2801 H       1  LIG1        0.0623
     25 H         -13.3677   -5.2326    0.7952 H       1  LIG1        0.0623
     26 H          -2.4328   -1.2215   -4.4585 H       1  LIG1        0.0624
     27 H          -2.0354    1.2329   -4.4690 H       1  LIG1        0.0639
     28 H          -9.2163   -5.2421   -0.1297 H       1  LIG1        0.0646
     29 H         -13.1101   -3.1266    2.0602 H       1  LIG1        0.0635
     30 H          -3.4832   -2.2491   -2.4577 H       1  LIG1        0.0659
     31 H          -2.6882    2.5700   -2.5117 H       1  LIG1        0.0840
     32 H          -5.1565    0.8893    0.1892 H       1  LIG1        0.0485
     33 H          -3.5352    0.6589    0.8857 H       1  LIG1        0.0485
     34 H          -6.1513   -0.6319   -1.0870 H       1  LIG1        0.0485
     35 H          -5.3980   -2.1894   -1.5037 H       1  LIG1        0.0485
     36 H          -5.3621    0.4409    2.5963 H       1  LIG1        0.0486
     37 H          -4.4056   -1.0534    2.4240 H       1  LIG1        0.0486
     38 H          -5.6566   -2.9733    0.8220 H       1  LIG1        0.0486
     39 H          -7.2366   -2.4361    0.1956 H       1  LIG1        0.0486
@<TRIPOS>BOND
     1     1     2   ar
     2     1     5   ar
     3     2     6   ar
     4     3     4   ar
     5     3     7   ar
     6     4     8   ar
     7     5     9   ar
     8     6    10   ar
     9     7    11   ar
    10     8    18   ar
    11     9    10   ar
    12     9    19   ar
    13    10    23   ar
    14    11    18   ar
    15    11    20    1
    16    12    13    1
    17    12    19   ar
    18    12    23   ar
    19    13    21   am
    20    13    22    2
    21    14    16    1
    22    14    20    1
    23    15    17    1
    24    15    20    1
    25    16    21    1
    26    17    21    1
    27     1    24    1
    28     2    25    1
    29     3    26    1
    30     4    27    1
    31     5    28    1
    32     6    29    1
    33     7    30    1
    34     8    31    1
    35    14    32    1
    36    14    33    1
    37    15    34    1
    38    15    35    1
    39    16    36    1
    40    16    37    1
    41    17    38    1
    42    17    39    1
