@<TRIPOS>MOLECULE
ChEBML807849
 32 33 0 0 0
SMALL
USER_CHARGES

@<TRIPOS>ATOM
      1 C         -12.5568   -4.7174    1.2885 C.ar    1  LIG1       -0.0615
      2 C         -11.6492   -5.5608    0.6508 C.ar    1  LIG1       -0.0603
      3 C         -12.1368   -3.5054    1.8484 C.ar    1  LIG1       -0.0530
      4 C         -10.2967   -5.2218    0.5522 C.ar    1  LIG1       -0.0402
      5 C         -10.0212   -2.0213    2.2033 C.ar    1  LIG1       -0.0262
      6 C         -10.7781   -3.1424    1.7614 C.ar    1  LIG1       -0.0022
      7 C          -9.8911   -4.0071    1.1167 C.ar    1  LIG1        0.0378
      8 C          -8.7138   -2.2235    1.8256 C.ar    1  LIG1        0.0944
      9 C          -7.5855   -1.3753    2.0465 C.2     1  LIG1        0.2572
     10 C          -4.8742   -0.1089    0.5577 C.3     1  LIG1        0.0019
     11 C          -5.0970   -1.0694    1.7228 C.3     1  LIG1        0.0163
     12 C          -4.7975   -0.8321   -0.7811 C.3     1  LIG1       -0.0364
     13 N          -8.6453   -3.4239    1.1706 N.ar    1  LIG1       -0.3101
     14 N          -6.3316   -1.8028    1.5595 N.am    1  LIG1       -0.3101
     15 N          -4.5331    0.1594   -1.8524 N.4     1  LIG1        0.2309
     16 O          -7.6920   -0.2902    2.6721 O.2     1  LIG1       -0.2704
     17 H         -13.6037   -5.0024    1.3517 H       1  LIG1        0.0623
     18 H         -11.9972   -6.4975    0.2232 H       1  LIG1        0.0623
     19 H         -12.8551   -2.8569    2.3422 H       1  LIG1        0.0629
     20 H          -9.5902   -5.8789    0.0561 H       1  LIG1        0.0642
     21 H         -10.3974   -1.1605    2.7401 H       1  LIG1        0.0651
     22 H          -3.9560    0.4696    0.7216 H       1  LIG1        0.0337
     23 H          -5.7033    0.6093    0.5353 H       1  LIG1        0.0337
     24 H          -4.2692   -1.7843    1.7712 H       1  LIG1        0.0469
     25 H          -5.1170   -0.5235    2.6719 H       1  LIG1        0.0469
     26 H          -3.9794   -1.5571   -0.8163 H       1  LIG1        0.0813
     27 H          -5.7400   -1.3269   -1.0335 H       1  LIG1        0.0813
     28 H          -7.8036   -3.8271    0.7823 H       1  LIG1        0.1529
     29 H          -6.2722   -2.7132    1.1152 H       1  LIG1        0.1497
     30 H          -5.1085   -0.0316   -2.6795 H       1  LIG1        0.1962
     31 H          -3.5487    0.1348   -2.1397 H       1  LIG1        0.1962
     32 H          -4.7453    1.1107   -1.5325 H       1  LIG1        0.1962
@<TRIPOS>BOND
     1     1     2   ar
     2     1     3   ar
     3     2     4   ar
     4     3     6   ar
     5     4     7   ar
     6     5     6   ar
     7     5     8   ar
     8     6     7   ar
     9     7    13   ar
    10     8     9    1
    11     8    13   ar
    12     9    14   am
    13     9    16    2
    14    10    11    1
    15    10    12    1
    16    11    14    1
    17    12    15    1
    18     1    17    1
    19     2    18    1
    20     3    19    1
    21     4    20    1
    22     5    21    1
    23    10    22    1
    24    10    23    1
    25    11    24    1
    26    11    25    1
    27    12    26    1
    28    12    27    1
    29    13    28    1
    30    14    29    1
    31    15    30    1
    32    15    31    1
    33    15    32    1
