@<TRIPOS>MOLECULE
ChEBML368820
 58 63 0 0 0
SMALL
USER_CHARGES

@<TRIPOS>ATOM
      1 C          -6.7624   -1.7435   -0.7801 C.ar    1  LIG1       -0.0501
      2 C          -5.7474   -1.2246   -1.5937 C.ar    1  LIG1       -0.0519
      3 C         -11.8639   -5.9371    1.4723 C.ar    1  LIG1       -0.0519
      4 C         -10.5013   -5.6899    1.2822 C.ar    1  LIG1       -0.0397
      5 C         -12.2599   -3.6179    2.0737 C.ar    1  LIG1       -0.0446
      6 C         -10.0868   -2.1765    2.0098 C.ar    1  LIG1       -0.0293
      7 C          -4.8194    0.0468    0.2638 C.ar    1  LIG1       -0.0291
      8 C          -6.8019   -1.3593    0.5706 C.ar    1  LIG1        0.0265
      9 C         -10.8901   -3.3448    1.8882 C.ar    1  LIG1       -0.0018
     10 C          -4.7935   -0.3448   -1.0788 C.ar    1  LIG1        0.0058
     11 C         -12.7315   -4.9186    1.8619 C.ar    1  LIG1       -0.0035
     12 C         -10.0441   -4.3849    1.4976 C.ar    1  LIG1        0.0377
     13 C          -5.8396   -0.4817    1.0577 C.ar    1  LIG1        0.0577
     14 C          -7.6198   -1.6363    1.6872 C.ar    1  LIG1        0.1116
     15 C          -3.7651    0.1691   -1.9411 C.ar    1  LIG1        0.1156
     16 C          -8.7929   -2.5235    1.6968 C.ar    1  LIG1        0.0593
     17 C          -2.7907   -0.5376   -2.6597 C.ar    1  LIG1        0.1134
     18 C         -17.1183   -5.1402   -1.1434 C.3     1  LIG1       -0.0434
     19 C         -16.8355   -6.4486   -0.4129 C.3     1  LIG1       -0.0134
     20 C         -15.8598   -4.2860   -1.2534 C.3     1  LIG1       -0.0134
     21 C         -16.1881   -6.2083    0.9434 C.3     1  LIG1       -0.0340
     22 C         -15.2156   -4.0537    0.1058 C.3     1  LIG1       -0.0340
     23 C         -14.1885   -5.2176    2.0574 C.3     1  LIG1       -0.0083
     24 C          -2.5472   -1.9860   -2.7347 C.3     1  LIG1        0.0892
     25 N          -7.2239   -0.9981    2.7908 N.ar    1  LIG1       -0.1816
     26 N          -3.6272    1.4799   -2.1593 N.ar    1  LIG1       -0.1648
     27 N          -2.0238    0.3165   -3.3434 N.ar    1  LIG1       -0.1671
     28 N          -8.7771   -3.8574    1.3890 N.ar    1  LIG1       -0.3126
     29 N          -6.1464   -0.3084    2.3803 N.ar    1  LIG1       -0.2372
     30 N          -2.5783    1.4894   -2.9976 N.ar    1  LIG1       -0.1583
     31 N         -14.9350   -5.3846    0.7624 N.4     1  LIG1        0.2493
     32 O          -1.9228   -2.4439   -1.5331 O.3     1  LIG1       -0.3899
     33 H          -7.4959   -2.4286   -1.1941 H       1  LIG1        0.0631
     34 H          -5.7163   -1.5221   -2.6403 H       1  LIG1        0.0630
     35 H         -12.2423   -6.9443    1.3111 H       1  LIG1        0.0628
     36 H          -9.8262   -6.4833    0.9794 H       1  LIG1        0.0643
     37 H         -12.9397   -2.8261    2.3773 H       1  LIG1        0.0635
     38 H         -10.4262   -1.1900    2.2971 H       1  LIG1        0.0650
     39 H          -4.0861    0.7309    0.6794 H       1  LIG1        0.0650
     40 H         -17.5125   -5.3510   -2.1437 H       1  LIG1        0.0271
     41 H         -17.8933   -4.5814   -0.6043 H       1  LIG1        0.0271
     42 H         -17.7699   -7.0054   -0.2809 H       1  LIG1        0.0320
     43 H         -16.1769   -7.0738   -1.0288 H       1  LIG1        0.0320
     44 H         -15.1421   -4.7790   -1.9209 H       1  LIG1        0.0320
     45 H         -16.1086   -3.3217   -1.7104 H       1  LIG1        0.0320
     46 H         -16.8521   -5.6609    1.6217 H       1  LIG1        0.0814
     47 H         -15.8945   -7.1573    1.4039 H       1  LIG1        0.0814
     48 H         -14.2590   -3.5323   -0.0040 H       1  LIG1        0.0814
     49 H         -15.8698   -3.4836    0.7749 H       1  LIG1        0.0814
     50 H         -14.3300   -6.1445    2.6237 H       1  LIG1        0.0869
     51 H         -14.6874   -4.4118    2.6065 H       1  LIG1        0.0869
     52 H          -3.4807   -2.5641   -2.8698 H       1  LIG1        0.0633
     53 H          -1.8888   -2.2555   -3.5819 H       1  LIG1        0.0633
     54 H          -7.9559   -4.3822    1.1202 H       1  LIG1        0.1528
     55 H          -5.6613    0.2663    3.0579 H       1  LIG1        0.1755
     56 H          -2.2141    2.3624   -3.3623 H       1  LIG1        0.1990
     57 H         -14.3117   -5.9103    0.1341 H       1  LIG1        0.2007
     58 H          -1.7892   -3.3970   -1.6422 H       1  LIG1        0.2106
@<TRIPOS>BOND
     1     1     2   ar
     2     1     8   ar
     3     2    10   ar
     4     3     4   ar
     5     3    11   ar
     6     4    12   ar
     7     5     9   ar
     8     5    11   ar
     9     6     9   ar
    10     6    16   ar
    11     7    10   ar
    12     7    13   ar
    13     8    13   ar
    14     8    14   ar
    15     9    12   ar
    16    10    15    1
    17    11    23    1
    18    12    28   ar
    19    13    29   ar
    20    14    16    1
    21    14    25   ar
    22    15    17   ar
    23    15    26   ar
    24    16    28   ar
    25    17    24    1
    26    17    27   ar
    27    18    19    1
    28    18    20    1
    29    19    21    1
    30    20    22    1
    31    21    31    1
    32    22    31    1
    33    23    31    1
    34    24    32    1
    35    25    29   ar
    36    26    30   ar
    37    27    30   ar
    38     1    33    1
    39     2    34    1
    40     3    35    1
    41     4    36    1
    42     5    37    1
    43     6    38    1
    44     7    39    1
    45    18    40    1
    46    18    41    1
    47    19    42    1
    48    19    43    1
    49    20    44    1
    50    20    45    1
    51    21    46    1
    52    21    47    1
    53    22    48    1
    54    22    49    1
    55    23    50    1
    56    23    51    1
    57    24    52    1
    58    24    53    1
    59    28    54    1
    60    29    55    1
    61    30    56    1
    62    31    57    1
    63    32    58    1
