@<TRIPOS>MOLECULE
ChEBML345906
 39 41 0 0 0
SMALL
USER_CHARGES

@<TRIPOS>ATOM
      1 C          -2.7208    1.0354   -3.4090 C.ar    1  LIG1       -0.0621
      2 C          -2.3072    1.4263   -2.1355 C.ar    1  LIG1       -0.0604
      3 C          -3.5074   -0.1057   -3.5672 C.ar    1  LIG1       -0.0604
      4 C         -10.5677   -5.0428    0.3945 C.ar    1  LIG1       -0.0376
      5 C         -11.8124   -5.4968    0.8404 C.ar    1  LIG1       -0.0299
      6 C          -2.6801    0.6762   -1.0202 C.ar    1  LIG1       -0.0395
      7 C          -3.8803   -0.8558   -2.4519 C.ar    1  LIG1       -0.0395
      8 C         -11.9437   -3.7071    2.4764 C.ar    1  LIG1       -0.0226
      9 C          -9.8578   -2.1416    2.4255 C.ar    1  LIG1       -0.0261
     10 C         -10.6901   -3.2310    2.0439 C.ar    1  LIG1        0.0004
     11 C         -10.0323   -3.9085    1.0150 C.ar    1  LIG1        0.0380
     12 C         -12.4915   -4.8406    1.8652 C.ar    1  LIG1        0.0753
     13 C          -3.4666   -0.4650   -1.1784 C.ar    1  LIG1        0.0558
     14 C          -8.7317   -2.1784    1.6357 C.ar    1  LIG1        0.0961
     15 C          -7.6111   -1.2923    1.6478 C.2     1  LIG1        0.2743
     16 C         -14.3484   -4.5929    3.3301 C.3     1  LIG1        0.0422
     17 N          -8.8463   -3.2474    0.7880 N.ar    1  LIG1       -0.3100
     18 N          -6.5725   -1.5407    0.7341 N.am    1  LIG1       -0.2197
     19 N          -5.4080   -0.6801    0.6833 N.3     1  LIG1       -0.2075
     20 O          -7.5488   -0.3181    2.4388 O.2     1  LIG1       -0.2687
     21 O          -2.9533   -1.1826    1.2763 O.2     1  LIG1       -0.4750
     22 O          -4.2013   -2.7660   -0.2287 O.2     1  LIG1       -0.4750
     23 O         -13.7036   -5.3074    2.2779 O.3     1  LIG1       -0.3493
     24 S          -3.9365   -1.4180    0.2360 S.O2    1  LIG1       -0.1526
     25 H          -2.4303    1.6187   -4.2779 H       1  LIG1        0.0622
     26 H          -1.6939    2.3140   -2.0120 H       1  LIG1        0.0623
     27 H          -3.8286   -0.4102   -4.5589 H       1  LIG1        0.0623
     28 H         -10.0398   -5.5541   -0.4035 H       1  LIG1        0.0643
     29 H         -12.2507   -6.3765    0.3748 H       1  LIG1        0.0651
     30 H          -2.3516    0.9890   -0.0327 H       1  LIG1        0.0642
     31 H          -4.4921   -1.7437   -2.5868 H       1  LIG1        0.0642
     32 H         -12.4801   -3.2006    3.2745 H       1  LIG1        0.0657
     33 H         -10.0647   -1.4112    3.1964 H       1  LIG1        0.0651
     34 H         -15.3043   -5.0689    3.5623 H       1  LIG1        0.0535
     35 H         -14.5105   -3.5568    3.0222 H       1  LIG1        0.0535
     36 H         -13.7097   -4.6120    4.2162 H       1  LIG1        0.0535
     37 H          -8.1614   -3.5154    0.0946 H       1  LIG1        0.1529
     38 H          -6.5820   -2.3215    0.0871 H       1  LIG1        0.1755
     39 H          -5.3950    0.1050    1.3458 H       1  LIG1        0.1892
@<TRIPOS>BOND
     1     1     2   ar
     2     1     3   ar
     3     2     6   ar
     4     3     7   ar
     5     4     5   ar
     6     4    11   ar
     7     5    12   ar
     8     6    13   ar
     9     7    13   ar
    10     8    10   ar
    11     8    12   ar
    12     9    10   ar
    13     9    14   ar
    14    10    11   ar
    15    11    17   ar
    16    12    23    1
    17    13    24    1
    18    14    15    1
    19    14    17   ar
    20    15    18   am
    21    15    20    2
    22    16    23    1
    23    18    19    1
    24    19    24    1
    25    21    24    2
    26    22    24    2
    27     1    25    1
    28     2    26    1
    29     3    27    1
    30     4    28    1
    31     5    29    1
    32     6    30    1
    33     7    31    1
    34     8    32    1
    35     9    33    1
    36    16    34    1
    37    16    35    1
    38    16    36    1
    39    17    37    1
    40    18    38    1
    41    19    39    1
