@<TRIPOS>MOLECULE
ChEBML212752
 36 38 0 0 0
SMALL
USER_CHARGES

@<TRIPOS>ATOM
      1 C         -12.4152   -4.7247    1.1261 C.ar    1  LIG1       -0.0604
      2 C         -12.0690   -3.4035    1.4321 C.ar    1  LIG1       -0.0529
      3 C         -11.4316   -5.6851    0.8984 C.ar    1  LIG1       -0.0460
      4 C         -10.0110   -1.8405    1.7874 C.ar    1  LIG1       -0.0262
      5 C         -10.7072   -3.0499    1.5087 C.ar    1  LIG1       -0.0010
      6 C          -9.7432   -4.0333    1.2758 C.ar    1  LIG1        0.0522
      7 C         -10.0745   -5.3578    0.9689 C.ar    1  LIG1        0.0394
      8 C          -8.6632   -2.1081    1.7198 C.ar    1  LIG1        0.0947
      9 C          -7.5662   -1.2080    1.9243 C.2     1  LIG1        0.2602
     10 C          -6.4062   -2.1562   -0.1029 C.3     1  LIG1        0.0539
     11 C          -5.0613   -1.1546    1.6980 C.3     1  LIG1        0.0539
     12 C          -5.6978   -1.2998   -1.1422 C.3     1  LIG1       -0.0183
     13 C          -4.3211   -0.2857    0.6904 C.3     1  LIG1       -0.0183
     14 C          -3.5089   -0.2183   -1.6705 C.3     1  LIG1       -0.0453
     15 N          -8.5116   -3.4331    1.4105 N.ar    1  LIG1       -0.3092
     16 N          -6.3971   -1.4926    1.2071 N.am    1  LIG1       -0.2863
     17 N          -4.3004   -0.9873   -0.6503 N.4     1  LIG1        0.2462
     18 O          -7.6774   -0.2521    2.6901 O.2     1  LIG1       -0.2701
     19 BR         -8.7593   -6.6742    0.6546 Br      1  LIG1       -0.0487
     20 H         -13.4641   -5.0027    1.0643 H       1  LIG1        0.0623
     21 H         -12.8456   -2.6645    1.6051 H       1  LIG1        0.0629
     22 H         -11.7401   -6.7014    0.6625 H       1  LIG1        0.0635
     23 H         -10.4532   -0.8791    2.0128 H       1  LIG1        0.0651
     24 H          -7.4231   -2.3690   -0.4413 H       1  LIG1        0.0525
     25 H          -5.8967   -3.1200    0.0175 H       1  LIG1        0.0525
     26 H          -4.5252   -2.0962    1.8667 H       1  LIG1        0.0525
     27 H          -5.1200   -0.6348    2.6593 H       1  LIG1        0.0525
     28 H          -5.6013   -1.8360   -2.0916 H       1  LIG1        0.0831
     29 H          -6.2105   -0.3448   -1.3028 H       1  LIG1        0.0831
     30 H          -4.8164    0.6811    0.5458 H       1  LIG1        0.0831
     31 H          -3.2823   -0.1291    0.9979 H       1  LIG1        0.0831
     32 H          -4.0075    0.7401   -1.8268 H       1  LIG1        0.0777
     33 H          -2.5015   -0.0768   -1.2745 H       1  LIG1        0.0777
     34 H          -3.4899   -0.8054   -2.5906 H       1  LIG1        0.0777
     35 H          -7.6256   -3.9057    1.2948 H       1  LIG1        0.1530
     36 H          -3.8140   -1.8849   -0.5185 H       1  LIG1        0.2001
@<TRIPOS>BOND
     1     1     2   ar
     2     1     3   ar
     3     2     5   ar
     4     3     7   ar
     5     4     5   ar
     6     4     8   ar
     7     5     6   ar
     8     6     7   ar
     9     6    15   ar
    10     7    19    1
    11     8     9    1
    12     8    15   ar
    13     9    16   am
    14     9    18    2
    15    10    12    1
    16    10    16    1
    17    11    13    1
    18    11    16    1
    19    12    17    1
    20    13    17    1
    21    14    17    1
    22     1    20    1
    23     2    21    1
    24     3    22    1
    25     4    23    1
    26    10    24    1
    27    10    25    1
    28    11    26    1
    29    11    27    1
    30    12    28    1
    31    12    29    1
    32    13    30    1
    33    13    31    1
    34    14    32    1
    35    14    33    1
    36    14    34    1
    37    15    35    1
    38    17    36    1
