@<TRIPOS>MOLECULE
ChEBML311614
 50 52 0 0 0
SMALL
USER_CHARGES

@<TRIPOS>ATOM
      1 C         -12.3617   -3.6970    1.8373 C.ar    1  LIG1       -0.0569
      2 C         -11.6478   -5.7756    0.8338 C.ar    1  LIG1       -0.0569
      3 C         -11.0635   -3.1985    1.7287 C.ar    1  LIG1       -0.0404
      4 C         -10.3495   -5.2771    0.7252 C.ar    1  LIG1       -0.0404
      5 C          -1.9086   -0.5654   -2.9871 C.ar    1  LIG1       -0.0355
      6 C          -2.8801   -1.1576   -2.1992 C.ar    1  LIG1       -0.0179
      7 C         -12.6539   -4.9855    1.3899 C.ar    1  LIG1       -0.0453
      8 C         -10.0574   -3.9887    1.1727 C.ar    1  LIG1        0.0340
      9 C          -2.0125    0.7890   -3.2318 C.ar    1  LIG1        0.0601
     10 C          -3.8908   -0.3558   -1.7081 C.ar    1  LIG1        0.1429
     11 C          -8.5209   -2.1210    0.9700 C.2     1  LIG1        0.3050
     12 C          -5.5104   -0.1465    0.1098 C.3     1  LIG1        0.0289
     13 C          -5.5690   -2.1054   -1.4638 C.3     1  LIG1        0.0289
     14 C          -7.0224   -0.3588    0.0816 C.3     1  LIG1        0.0315
     15 C          -6.4637   -2.7334   -0.3942 C.3     1  LIG1        0.0315
     16 C          -0.9913    1.4758   -4.0725 C.3     1  LIG1       -0.0204
     17 C         -14.1232   -6.7558    2.4195 C.3     1  LIG1       -0.0587
     18 C         -14.6664   -5.8393    0.1349 C.3     1  LIG1       -0.0587
     19 C         -14.0420   -5.5182    1.5061 C.3     1  LIG1       -0.0219
     20 N          -3.0127    1.5493   -2.7381 N.ar    1  LIG1       -0.1540
     21 N          -3.9672    0.9674   -1.9635 N.ar    1  LIG1       -0.1350
     22 N          -4.8546   -0.9438   -0.9303 N.pl3   1  LIG1       -0.3112
     23 N          -7.3718   -1.7693    0.2369 N.am    1  LIG1       -0.2824
     24 N          -8.7546   -3.4888    1.0633 N.am    1  LIG1       -0.2691
     25 O          -9.2598   -1.2825    1.4964 O.2     1  LIG1       -0.2537
     26 H         -13.1390   -3.0752    2.2738 H       1  LIG1        0.0626
     27 H         -11.8663   -6.7809    0.4834 H       1  LIG1        0.0626
     28 H         -10.8472   -2.1929    2.0802 H       1  LIG1        0.0642
     29 H          -9.5728   -5.9018    0.2913 H       1  LIG1        0.0642
     30 H          -1.0966   -1.1565   -3.3966 H       1  LIG1        0.0643
     31 H          -2.8359   -2.2203   -1.9837 H       1  LIG1        0.0661
     32 H          -5.2974    0.9218   -0.0197 H       1  LIG1        0.0485
     33 H          -5.1063   -0.4458    1.0843 H       1  LIG1        0.0485
     34 H          -4.8553   -2.8568   -1.8222 H       1  LIG1        0.0485
     35 H          -6.1810   -1.7929   -2.3196 H       1  LIG1        0.0485
     36 H          -7.4966    0.2368    0.8687 H       1  LIG1        0.0486
     37 H          -7.4415   -0.0286   -0.8768 H       1  LIG1        0.0486
     38 H          -7.0470   -3.5434   -0.8443 H       1  LIG1        0.0486
     39 H          -5.8514   -3.1631    0.4078 H       1  LIG1        0.0486
     40 H          -1.2893    1.4576   -5.1284 H       1  LIG1        0.0296
     41 H          -0.8603    2.5224   -3.7669 H       1  LIG1        0.0296
     42 H          -0.0087    0.9938   -3.9808 H       1  LIG1        0.0296
     43 H         -13.5005   -7.5754    2.0445 H       1  LIG1        0.0236
     44 H         -15.1502   -7.1287    2.4990 H       1  LIG1        0.0236
     45 H         -13.7771   -6.5091    3.4295 H       1  LIG1        0.0236
     46 H         -14.0689   -6.5929   -0.3903 H       1  LIG1        0.0236
     47 H         -14.7164   -4.9486   -0.5010 H       1  LIG1        0.0236
     48 H         -15.6840   -6.2317    0.2373 H       1  LIG1        0.0236
     49 H         -14.6989   -4.7564    1.9677 H       1  LIG1        0.0346
     50 H          -7.9995   -4.1627    1.1121 H       1  LIG1        0.1573
@<TRIPOS>BOND
     1     1     3   ar
     2     1     7   ar
     3     2     4   ar
     4     2     7   ar
     5     3     8   ar
     6     4     8   ar
     7     5     6   ar
     8     5     9   ar
     9     6    10   ar
    10     7    19    1
    11     8    24    1
    12     9    16    1
    13     9    20   ar
    14    10    21   ar
    15    10    22    1
    16    11    23   am
    17    11    24   am
    18    11    25    2
    19    12    14    1
    20    12    22    1
    21    13    15    1
    22    13    22    1
    23    14    23    1
    24    15    23    1
    25    17    19    1
    26    18    19    1
    27    20    21   ar
    28     1    26    1
    29     2    27    1
    30     3    28    1
    31     4    29    1
    32     5    30    1
    33     6    31    1
    34    12    32    1
    35    12    33    1
    36    13    34    1
    37    13    35    1
    38    14    36    1
    39    14    37    1
    40    15    38    1
    41    15    39    1
    42    16    40    1
    43    16    41    1
    44    16    42    1
    45    17    43    1
    46    17    44    1
    47    17    45    1
    48    18    46    1
    49    18    47    1
    50    18    48    1
    51    19    49    1
    52    24    50    1
