@<TRIPOS>MOLECULE
ChEBML212773
 38 40 0 0 0
SMALL
USER_CHARGES

@<TRIPOS>ATOM
      1 C         -10.2515   -5.3189    0.9217 C.ar    1  LIG1       -0.0383
      2 C         -11.6020   -5.6636    1.0280 C.ar    1  LIG1       -0.0394
      3 C         -12.1682   -3.4367    1.8142 C.ar    1  LIG1       -0.0321
      4 C         -10.0905   -1.8679    1.9756 C.ar    1  LIG1       -0.0261
      5 C         -10.8123   -3.0663    1.7151 C.ar    1  LIG1       -0.0004
      6 C          -9.8872   -4.0139    1.2721 C.ar    1  LIG1        0.0379
      7 C         -12.5473   -4.7387    1.4671 C.ar    1  LIG1        0.0241
      8 C          -8.7657   -2.1069    1.6911 C.ar    1  LIG1        0.0947
      9 C          -7.6557   -1.2061    1.7999 C.2     1  LIG1        0.2602
     10 C          -6.8020   -1.9826   -0.4412 C.3     1  LIG1        0.0539
     11 C          -5.2119   -1.0943    1.2135 C.3     1  LIG1        0.0539
     12 C          -6.2595   -1.0401   -1.5055 C.3     1  LIG1       -0.0183
     13 C          -4.6334   -0.1412    0.1767 C.3     1  LIG1       -0.0183
     14 C          -4.1785    0.1139   -2.2658 C.3     1  LIG1       -0.0453
     15 N          -8.6531   -3.4039    1.2673 N.ar    1  LIG1       -0.3101
     16 N          -6.6035   -1.4174    0.8996 N.am    1  LIG1       -0.2863
     17 N         -13.9049   -5.1173    1.5627 N.pl3   1  LIG1       -0.3583
     18 N          -4.8066   -0.7414   -1.2016 N.4     1  LIG1        0.2462
     19 O          -7.6581   -0.3115    2.6437 O.2     1  LIG1       -0.2701
     20 H          -9.5164   -6.0399    0.5801 H       1  LIG1        0.0643
     21 H         -11.9077   -6.6733    0.7614 H       1  LIG1        0.0643
     22 H         -12.9074   -2.7170    2.1560 H       1  LIG1        0.0649
     23 H         -10.5010   -0.9326    2.3329 H       1  LIG1        0.0651
     24 H          -7.8565   -2.1867   -0.6418 H       1  LIG1        0.0525
     25 H          -6.2749   -2.9440   -0.4700 H       1  LIG1        0.0525
     26 H          -4.6515   -2.0367    1.2301 H       1  LIG1        0.0525
     27 H          -5.1312   -0.6481    2.2095 H       1  LIG1        0.0525
     28 H          -6.3010   -1.5030   -2.4966 H       1  LIG1        0.0831
     29 H          -6.7957   -0.0845   -1.5166 H       1  LIG1        0.0831
     30 H          -5.1500    0.8252    0.1797 H       1  LIG1        0.0831
     31 H          -3.5614    0.0096    0.3396 H       1  LIG1        0.0831
     32 H          -4.7001    1.0728   -2.2745 H       1  LIG1        0.0777
     33 H          -3.1245    0.2426   -2.0122 H       1  LIG1        0.0777
     34 H          -4.2923   -0.4033   -3.2205 H       1  LIG1        0.0777
     35 H          -7.7906   -3.8530    0.9913 H       1  LIG1        0.1529
     36 H         -14.1756   -6.0325    1.2680 H       1  LIG1        0.1426
     37 H         -14.5815   -4.4341    1.8331 H       1  LIG1        0.1426
     38 H          -4.3010   -1.6381   -1.2106 H       1  LIG1        0.2001
@<TRIPOS>BOND
     1     1     2   ar
     2     1     6   ar
     3     2     7   ar
     4     3     5   ar
     5     3     7   ar
     6     4     5   ar
     7     4     8   ar
     8     5     6   ar
     9     6    15   ar
    10     7    17    1
    11     8     9    1
    12     8    15   ar
    13     9    16   am
    14     9    19    2
    15    10    12    1
    16    10    16    1
    17    11    13    1
    18    11    16    1
    19    12    18    1
    20    13    18    1
    21    14    18    1
    22     1    20    1
    23     2    21    1
    24     3    22    1
    25     4    23    1
    26    10    24    1
    27    10    25    1
    28    11    26    1
    29    11    27    1
    30    12    28    1
    31    12    29    1
    32    13    30    1
    33    13    31    1
    34    14    32    1
    35    14    33    1
    36    14    34    1
    37    15    35    1
    38    17    36    1
    39    17    37    1
    40    18    38    1
