@<TRIPOS>MOLECULE
ChEBML208988
 43 46 0 0 0
SMALL
USER_CHARGES

@<TRIPOS>ATOM
      1 C         -12.1432   -5.3850    1.3491 C.ar    1  LIG1       -0.0600
      2 C         -11.1675   -5.9616    0.5327 C.ar    1  LIG1       -0.0602
      3 C          -2.9622    1.2468   -3.5450 C.ar    1  LIG1       -0.0602
      4 C          -1.8262    0.4454   -3.4313 C.ar    1  LIG1       -0.0592
      5 C         -11.9160   -4.1608    1.9902 C.ar    1  LIG1       -0.0344
      6 C          -9.9322   -5.3384    0.3272 C.ar    1  LIG1       -0.0385
      7 C          -4.0093    1.1055   -2.6343 C.ar    1  LIG1       -0.0379
      8 C          -1.7373   -0.4973   -2.4071 C.ar    1  LIG1       -0.0244
      9 C         -10.6804   -3.5207    1.7950 C.ar    1  LIG1        0.0864
     10 C          -9.7279   -4.1200    0.9757 C.ar    1  LIG1        0.0575
     11 C          -3.9205    0.1628   -1.6100 C.ar    1  LIG1        0.0652
     12 C          -2.7845   -0.6387   -1.4964 C.ar    1  LIG1        0.1439
     13 C          -9.0014   -2.2017    1.8042 C.ar    1  LIG1        0.1434
     14 C          -4.5565   -0.4145    0.6341 C.3     1  LIG1        0.0510
     15 C          -6.1680   -0.6036   -1.2534 C.3     1  LIG1        0.0510
     16 C          -5.7180   -0.2920    1.6112 C.3     1  LIG1       -0.0177
     17 C          -7.3264   -0.4858   -0.2710 C.3     1  LIG1       -0.0177
     18 C          -8.0483   -1.0680    2.0440 C.3     1  LIG1        0.0233
     19 N         -10.2114   -2.3300    2.3005 N.ar    1  LIG1       -0.2303
     20 N          -8.6645   -3.2546    0.9999 N.ar    1  LIG1       -0.2969
     21 N          -4.9604    0.0246   -0.7081 N.pl3   1  LIG1       -0.3179
     22 N          -6.9074   -1.0409    1.0660 N.4     1  LIG1        0.2537
     23 F          -2.6887   -1.5479   -0.5161 F       1  LIG1       -0.2049
     24 H         -13.0938   -5.8934    1.4889 H       1  LIG1        0.0623
     25 H         -11.3707   -6.9137    0.0485 H       1  LIG1        0.0623
     26 H          -3.0312    1.9806   -4.3426 H       1  LIG1        0.0623
     27 H          -1.0111    0.5559   -4.1405 H       1  LIG1        0.0624
     28 H         -12.6814   -3.7208    2.6215 H       1  LIG1        0.0646
     29 H          -9.1741   -5.7840   -0.3069 H       1  LIG1        0.0643
     30 H          -4.8897    1.7358   -2.7315 H       1  LIG1        0.0643
     31 H          -0.8530   -1.1212   -2.3185 H       1  LIG1        0.0654
     32 H          -3.7248    0.2005    0.9995 H       1  LIG1        0.0524
     33 H          -4.2064   -1.4544    0.5948 H       1  LIG1        0.0524
     34 H          -5.9702   -1.6609   -1.4736 H       1  LIG1        0.0524
     35 H          -6.4564   -0.1189   -2.1943 H       1  LIG1        0.0524
     36 H          -5.4594   -0.7359    2.5780 H       1  LIG1        0.0831
     37 H          -6.0212    0.7516    1.7548 H       1  LIG1        0.0831
     38 H          -7.6242    0.5578   -0.1168 H       1  LIG1        0.0831
     39 H          -8.1880   -1.0662   -0.6172 H       1  LIG1        0.0831
     40 H          -8.5552   -0.1005    1.9626 H       1  LIG1        0.0899
     41 H          -7.6044   -1.1291    3.0435 H       1  LIG1        0.0899
     42 H          -7.7887   -3.3760    0.5085 H       1  LIG1        0.1542
     43 H          -6.6208   -2.0190    0.9214 H       1  LIG1        0.2009
@<TRIPOS>BOND
     1     1     2   ar
     2     1     5   ar
     3     2     6   ar
     4     3     4   ar
     5     3     7   ar
     6     4     8   ar
     7     5     9   ar
     8     6    10   ar
     9     7    11   ar
    10     8    12   ar
    11     9    10   ar
    12     9    19   ar
    13    10    20   ar
    14    11    12   ar
    15    11    21    1
    16    12    23    1
    17    13    18    1
    18    13    19   ar
    19    13    20   ar
    20    14    16    1
    21    14    21    1
    22    15    17    1
    23    15    21    1
    24    16    22    1
    25    17    22    1
    26    18    22    1
    27     1    24    1
    28     2    25    1
    29     3    26    1
    30     4    27    1
    31     5    28    1
    32     6    29    1
    33     7    30    1
    34     8    31    1
    35    14    32    1
    36    14    33    1
    37    15    34    1
    38    15    35    1
    39    16    36    1
    40    16    37    1
    41    17    38    1
    42    17    39    1
    43    18    40    1
    44    18    41    1
    45    20    42    1
    46    22    43    1
