@<TRIPOS>MOLECULE
ChEBML331734
 33 35 0 0 0
SMALL
USER_CHARGES

@<TRIPOS>ATOM
      1 C         -10.0464   -2.0291    2.0293 C.ar    1  LIG1       -0.0256
      2 C         -12.1204   -3.7454    1.7534 C.ar    1  LIG1       -0.0269
      3 C         -10.7720   -3.1980    1.6561 C.ar    1  LIG1        0.0068
      4 C          -8.7596   -2.1760    1.6105 C.ar    1  LIG1        0.0951
      5 C          -9.8441   -4.0178    1.0065 C.ar    1  LIG1        0.0777
      6 C         -12.3708   -4.9552    1.2319 C.ar    1  LIG1        0.0801
      7 C          -7.6834   -1.1996    1.7954 C.2     1  LIG1        0.2602
      8 C          -5.4277   -0.3844    1.2788 C.3     1  LIG1        0.0539
      9 C          -6.5259   -2.1543   -0.1457 C.3     1  LIG1        0.0539
     10 C          -5.0445    0.3365   -0.0177 C.3     1  LIG1       -0.0183
     11 C          -6.0909   -1.3498   -1.3751 C.3     1  LIG1       -0.0183
     12 C          -4.3588    0.0293   -2.2942 C.3     1  LIG1       -0.0453
     13 N          -8.6395   -3.4000    0.9753 N.ar    1  LIG1       -0.3045
     14 N          -6.5903   -1.2442    1.0082 N.am    1  LIG1       -0.2863
     15 N          -4.8323   -0.6524   -1.0822 N.4     1  LIG1        0.2462
     16 O          -7.7763   -0.3480    2.6603 O.2     1  LIG1       -0.2701
     17 S         -10.7936   -5.4503    0.5653 S.2     1  LIG1       -0.0615
     18 CL        -13.8703   -5.8296    1.2119 Cl      1  LIG1       -0.0763
     19 H         -10.4482   -1.1747    2.5537 H       1  LIG1        0.0651
     20 H         -12.9056   -3.1847    2.2387 H       1  LIG1        0.0651
     21 H          -4.5917   -0.9954    1.6191 H       1  LIG1        0.0525
     22 H          -5.6845    0.3488    2.0434 H       1  LIG1        0.0525
     23 H          -5.8007   -2.9439    0.0506 H       1  LIG1        0.0525
     24 H          -7.5086   -2.5913   -0.3230 H       1  LIG1        0.0525
     25 H          -4.1272    0.9040    0.1393 H       1  LIG1        0.0831
     26 H          -5.8468    1.0153   -0.3070 H       1  LIG1        0.0831
     27 H          -6.8616   -0.6200   -1.6233 H       1  LIG1        0.0831
     28 H          -5.9446   -2.0250   -2.2182 H       1  LIG1        0.0831
     29 H          -5.1073    0.7511   -2.6211 H       1  LIG1        0.0777
     30 H          -3.4245    0.5475   -2.0781 H       1  LIG1        0.0777
     31 H          -4.1932   -0.7047   -3.0828 H       1  LIG1        0.0777
     32 H          -7.8296   -3.7557    0.5773 H       1  LIG1        0.1535
     33 H          -4.1399   -1.3223   -0.7824 H       1  LIG1        0.2001
@<TRIPOS>BOND
     1     1     3   ar
     2     1     4   ar
     3     2     3   ar
     4     2     6   ar
     5     3     5   ar
     6     4     7    1
     7     4    13   ar
     8     5    13   ar
     9     5    17   ar
    10     6    17   ar
    11     6    18    1
    12     7    14   am
    13     7    16    2
    14     8    10    1
    15     8    14    1
    16     9    11    1
    17     9    14    1
    18    10    15    1
    19    11    15    1
    20    12    15    1
    21     1    19    1
    22     2    20    1
    23     8    21    1
    24     8    22    1
    25     9    23    1
    26     9    24    1
    27    10    25    1
    28    10    26    1
    29    11    27    1
    30    11    28    1
    31    12    29    1
    32    12    30    1
    33    12    31    1
    34    13    32    1
    35    15    33    1
