@<TRIPOS>MOLECULE
ChEBML426555
 42 44 0 0 0
SMALL
USER_CHARGES

@<TRIPOS>ATOM
      1 C         -11.2196   -2.7311    1.4634 C.ar    1  LIG1       -0.0622
      2 C         -10.8454   -1.5974    2.1603 C.ar    1  LIG1       -0.0618
      3 C         -10.2703   -3.6746    1.1175 C.ar    1  LIG1       -0.0618
      4 C          -2.5314    1.0124   -3.3857 C.ar    1  LIG1       -0.0431
      5 C          -9.5221   -1.4075    2.5116 C.ar    1  LIG1       -0.0538
      6 C          -8.9464   -3.4826    1.4652 C.ar    1  LIG1       -0.0538
      7 C          -1.9184   -0.1758   -3.0115 C.ar    1  LIG1       -0.0449
      8 C          -3.6934    1.4031   -2.7507 C.ar    1  LIG1        0.0291
      9 C          -8.5730   -2.3514    2.1665 C.ar    1  LIG1       -0.0042
     10 C          -2.4990   -0.9308   -2.0081 C.ar    1  LIG1        0.0957
     11 C          -3.6737   -0.4794   -1.4155 C.ar    1  LIG1        0.1325
     12 C          -4.3388   -0.3696    0.7765 C.3     1  LIG1        0.0523
     13 C          -5.6526   -1.4833   -0.8364 C.3     1  LIG1        0.0523
     14 C          -5.0671   -1.1031    1.9039 C.3     1  LIG1       -0.0177
     15 C          -6.4019   -2.2346    0.2652 C.3     1  LIG1       -0.0177
     16 C          -7.1303   -2.1443    2.5497 C.3     1  LIG1       -0.0082
     17 C          -1.8708   -2.2278   -1.5674 C.3     1  LIG1        0.4193
     18 N          -4.2247    0.6631   -1.7964 N.ar    1  LIG1       -0.2408
     19 N          -4.2710   -1.2309   -0.4101 N.pl3   1  LIG1       -0.3049
     20 N          -6.4403   -1.4100    1.4806 N.4     1  LIG1        0.2516
     21 F          -0.7369   -2.4847   -2.3456 F       1  LIG1       -0.1660
     22 F          -2.7911   -3.2694   -1.7261 F       1  LIG1       -0.1660
     23 F          -1.5011   -2.1332   -0.2215 F       1  LIG1       -0.1660
     24 H         -12.2536   -2.8799    1.1895 H       1  LIG1        0.0622
     25 H         -11.5870   -0.8602    2.4304 H       1  LIG1        0.0623
     26 H         -10.5628   -4.5605    0.5735 H       1  LIG1        0.0623
     27 H          -2.1033    1.6251   -4.1653 H       1  LIG1        0.0639
     28 H          -9.2297   -0.5217    3.0560 H       1  LIG1        0.0628
     29 H          -8.2041   -4.2179    1.1918 H       1  LIG1        0.0628
     30 H          -1.0086   -0.5032   -3.4927 H       1  LIG1        0.0631
     31 H          -4.1735    2.3267   -3.0387 H       1  LIG1        0.0840
     32 H          -3.3288   -0.1181    1.1004 H       1  LIG1        0.0524
     33 H          -4.8785    0.5449    0.5306 H       1  LIG1        0.0524
     34 H          -6.1512   -0.5340   -1.0319 H       1  LIG1        0.0524
     35 H          -5.6475   -2.0838   -1.7462 H       1  LIG1        0.0524
     36 H          -4.5418   -2.0302    2.1331 H       1  LIG1        0.0831
     37 H          -5.0931   -0.4710    2.7915 H       1  LIG1        0.0831
     38 H          -5.8895   -3.1727    0.4786 H       1  LIG1        0.0831
     39 H          -7.4197   -2.4433   -0.0647 H       1  LIG1        0.0831
     40 H          -6.6501   -3.1121    2.6941 H       1  LIG1        0.0869
     41 H          -7.0788   -1.5715    3.4756 H       1  LIG1        0.0869
     42 H          -6.9336   -0.5508    1.2892 H       1  LIG1        0.2008
@<TRIPOS>BOND
     1     1     2   ar
     2     1     3   ar
     3     2     5   ar
     4     3     6   ar
     5     4     7   ar
     6     4     8   ar
     7     5     9   ar
     8     6     9   ar
     9     7    10   ar
    10     8    18   ar
    11     9    16    1
    12    10    11   ar
    13    10    17    1
    14    11    18   ar
    15    11    19    1
    16    12    14    1
    17    12    19    1
    18    13    15    1
    19    13    19    1
    20    14    20    1
    21    15    20    1
    22    16    20    1
    23    17    21    1
    24    17    22    1
    25    17    23    1
    26     1    24    1
    27     2    25    1
    28     3    26    1
    29     4    27    1
    30     5    28    1
    31     6    29    1
    32     7    30    1
    33     8    31    1
    34    12    32    1
    35    12    33    1
    36    13    34    1
    37    13    35    1
    38    14    36    1
    39    14    37    1
    40    15    38    1
    41    15    39    1
    42    16    40    1
    43    16    41    1
    44    20    42    1
