@<TRIPOS>MOLECULE
ChEBML369988
 48 51 0 0 0
SMALL
USER_CHARGES

@<TRIPOS>ATOM
      1 C          -1.4816    1.3381   -3.4538 C.ar    1  LIG1       -0.0622
      2 C          -2.8456    1.6287   -3.4291 C.ar    1  LIG1       -0.0620
      3 C          -1.0337    0.0632   -3.1075 C.ar    1  LIG1       -0.0620
      4 C         -11.4340   -5.2043   -0.2441 C.ar    1  LIG1       -0.0585
      5 C          -3.7617    0.6446   -3.0580 C.ar    1  LIG1       -0.0590
      6 C          -1.9499   -0.9210   -2.7363 C.ar    1  LIG1       -0.0590
      7 C         -10.2760   -4.4669   -0.5078 C.ar    1  LIG1       -0.0400
      8 C         -12.0922   -5.0953    0.9792 C.ar    1  LIG1       -0.0406
      9 C          -9.6927   -2.5515    2.4983 C.ar    1  LIG1       -0.0243
     10 C         -10.4441   -3.4891    1.7358 C.ar    1  LIG1        0.0186
     11 C          -3.3139   -0.6303   -2.7115 C.ar    1  LIG1       -0.0477
     12 C          -9.8054   -3.6184    0.5007 C.ar    1  LIG1        0.0397
     13 C         -11.6099   -4.2424    1.9788 C.ar    1  LIG1        0.0326
     14 C          -8.6321   -2.1378    1.7258 C.ar    1  LIG1        0.0947
     15 C          -7.6003   -1.2005    2.0604 C.2     1  LIG1        0.2598
     16 C          -5.5417   -2.7961   -0.4121 C.3     1  LIG1       -0.0341
     17 C          -5.0921   -0.3131   -0.3521 C.3     1  LIG1       -0.0341
     18 C          -5.8740   -2.7444    1.0780 C.3     1  LIG1        0.0147
     19 C          -5.4260   -0.3207    1.1376 C.3     1  LIG1        0.0147
     20 C          -4.5593   -1.6816   -0.8063 C.3     1  LIG1       -0.0344
     21 C          -4.3013   -1.6918   -2.3110 C.3     1  LIG1       -0.0249
     22 N          -8.7087   -2.7866    0.5227 N.ar    1  LIG1       -0.3100
     23 N          -6.3560   -1.4138    1.4524 N.am    1  LIG1       -0.2967
     24 N         -12.3035   -4.1603    3.2044 N.pl3   1  LIG1       -0.3577
     25 O          -7.8260   -0.2755    2.8386 O.2     1  LIG1       -0.2702
     26 H          -0.7684    2.1040   -3.7442 H       1  LIG1        0.0622
     27 H          -3.1945    2.6210   -3.6998 H       1  LIG1        0.0623
     28 H           0.0281   -0.1638   -3.1277 H       1  LIG1        0.0623
     29 H         -11.8256   -5.8731   -1.0063 H       1  LIG1        0.0624
     30 H          -4.8226    0.8802   -3.0413 H       1  LIG1        0.0625
     31 H          -1.5918   -1.9114   -2.4679 H       1  LIG1        0.0625
     32 H          -9.7648   -4.5520   -1.4607 H       1  LIG1        0.0642
     33 H         -12.9902   -5.6847    1.1502 H       1  LIG1        0.0642
     34 H          -9.9075   -2.2174    3.5050 H       1  LIG1        0.0652
     35 H          -5.1180   -3.7767   -0.6586 H       1  LIG1        0.0285
     36 H          -6.4685   -2.6902   -0.9908 H       1  LIG1        0.0285
     37 H          -5.9947   -0.0602   -0.9235 H       1  LIG1        0.0285
     38 H          -4.3498    0.4670   -0.5574 H       1  LIG1        0.0285
     39 H          -6.6178   -3.5106    1.3178 H       1  LIG1        0.0469
     40 H          -4.9812   -2.9529    1.6793 H       1  LIG1        0.0469
     41 H          -4.5195   -0.4821    1.7331 H       1  LIG1        0.0469
     42 H          -5.8324    0.6523    1.4243 H       1  LIG1        0.0469
     43 H          -3.6041   -1.8672   -0.2973 H       1  LIG1        0.0307
     44 H          -5.2460   -1.5433   -2.8440 H       1  LIG1        0.0319
     45 H          -3.9315   -2.6778   -2.6109 H       1  LIG1        0.0319
     46 H          -8.0562   -2.6743   -0.2413 H       1  LIG1        0.1529
     47 H         -13.1522   -4.6759    3.3198 H       1  LIG1        0.1427
     48 H         -11.9872   -3.5167    3.9011 H       1  LIG1        0.1427
@<TRIPOS>BOND
     1     1     2   ar
     2     1     3   ar
     3     2     5   ar
     4     3     6   ar
     5     4     7   ar
     6     4     8   ar
     7     5    11   ar
     8     6    11   ar
     9     7    12   ar
    10     8    13   ar
    11     9    10   ar
    12     9    14   ar
    13    10    12   ar
    14    10    13   ar
    15    11    21    1
    16    12    22   ar
    17    13    24    1
    18    14    15    1
    19    14    22   ar
    20    15    23   am
    21    15    25    2
    22    16    18    1
    23    16    20    1
    24    17    19    1
    25    17    20    1
    26    18    23    1
    27    19    23    1
    28    20    21    1
    29     1    26    1
    30     2    27    1
    31     3    28    1
    32     4    29    1
    33     5    30    1
    34     6    31    1
    35     7    32    1
    36     8    33    1
    37     9    34    1
    38    16    35    1
    39    16    36    1
    40    17    37    1
    41    17    38    1
    42    18    39    1
    43    18    40    1
    44    19    41    1
    45    19    42    1
    46    20    43    1
    47    21    44    1
    48    21    45    1
    49    22    46    1
    50    24    47    1
    51    24    48    1
