@<TRIPOS>MOLECULE
ChEBML212463
 33 35 0 0 0
SMALL
USER_CHARGES

@<TRIPOS>ATOM
      1 C         -12.4128   -4.6928    1.2737 C.ar    1  LIG1       -0.0615
      2 C         -11.4887   -5.5923    0.7569 C.ar    1  LIG1       -0.0603
      3 C         -12.0164   -3.4613    1.7073 C.ar    1  LIG1       -0.0530
      4 C         -10.1558   -5.2583    0.6722 C.ar    1  LIG1       -0.0402
      5 C          -9.9521   -1.9276    1.9882 C.ar    1  LIG1       -0.0262
      6 C         -10.6655   -3.0974    1.6315 C.ar    1  LIG1       -0.0022
      7 C          -9.7267   -4.0074    1.1074 C.ar    1  LIG1        0.0378
      8 C          -8.6431   -2.1338    1.6884 C.ar    1  LIG1        0.0947
      9 C          -7.5569   -1.1655    1.9010 C.2     1  LIG1        0.2602
     10 C          -5.2400   -0.4442    1.5390 C.3     1  LIG1        0.0538
     11 C          -6.2637   -2.2745    0.1355 C.3     1  LIG1        0.0538
     12 C          -4.7223    0.1833    0.2406 C.3     1  LIG1       -0.0198
     13 C          -5.6993   -1.5569   -1.1003 C.3     1  LIG1       -0.0198
     14 N          -8.4960   -3.3960    1.1464 N.ar    1  LIG1       -0.3101
     15 N          -6.4014   -1.2883    1.2183 N.am    1  LIG1       -0.2863
     16 N          -4.4496   -0.8759   -0.7391 N.4     1  LIG1        0.2408
     17 O          -7.6996   -0.2565    2.6967 O.2     1  LIG1       -0.2701
     18 H         -13.4546   -4.9710    1.3332 H       1  LIG1        0.0623
     19 H         -11.8191   -6.5632    0.4183 H       1  LIG1        0.0623
     20 H         -12.7418   -2.7691    2.1083 H       1  LIG1        0.0629
     21 H          -9.4450   -5.9647    0.2696 H       1  LIG1        0.0642
     22 H         -10.3730   -1.0320    2.4209 H       1  LIG1        0.0651
     23 H          -5.5389    0.3422    2.2321 H       1  LIG1        0.0525
     24 H          -4.4566   -1.0544    1.9887 H       1  LIG1        0.0525
     25 H          -5.5820   -3.0663    0.4458 H       1  LIG1        0.0525
     26 H          -7.2398   -2.6988   -0.0998 H       1  LIG1        0.0525
     27 H          -5.4742    0.8635   -0.1594 H       1  LIG1        0.0830
     28 H          -3.8045    0.7351    0.4443 H       1  LIG1        0.0830
     29 H          -6.4218   -0.8241   -1.4597 H       1  LIG1        0.0830
     30 H          -5.5016   -2.2874   -1.8847 H       1  LIG1        0.0830
     31 H          -7.6612   -3.7874    0.8449 H       1  LIG1        0.1529
     32 H          -4.0382   -0.4697   -1.5660 H       1  LIG1        0.1984
     33 H          -3.8071   -1.5439   -0.3402 H       1  LIG1        0.1984
@<TRIPOS>BOND
     1     1     2   ar
     2     1     3   ar
     3     2     4   ar
     4     3     6   ar
     5     4     7   ar
     6     5     6   ar
     7     5     8   ar
     8     6     7   ar
     9     7    14   ar
    10     8     9    1
    11     8    14   ar
    12     9    15   am
    13     9    17    2
    14    10    12    1
    15    10    15    1
    16    11    13    1
    17    11    15    1
    18    12    16    1
    19    13    16    1
    20     1    18    1
    21     2    19    1
    22     3    20    1
    23     4    21    1
    24     5    22    1
    25    10    23    1
    26    10    24    1
    27    11    25    1
    28    11    26    1
    29    12    27    1
    30    12    28    1
    31    13    29    1
    32    13    30    1
    33    14    31    1
    34    16    32    1
    35    16    33    1
