@<TRIPOS>MOLECULE
ChEBML300193
 42 44 0 0 0
SMALL
USER_CHARGES

@<TRIPOS>ATOM
      1 C          -2.4916   -0.0621   -4.0084 C.ar    1  LIG1       -0.0435
      2 C          -3.1882    0.5594   -2.9779 C.ar    1  LIG1       -0.0544
      3 C         -10.2937   -5.1866    0.4589 C.ar    1  LIG1       -0.0387
      4 C         -11.6509   -5.5031    0.5673 C.ar    1  LIG1       -0.0416
      5 C         -12.0978   -3.4339    1.7573 C.ar    1  LIG1       -0.0343
      6 C          -9.9562   -1.9827    2.0919 C.ar    1  LIG1       -0.0262
      7 C          -1.1641   -0.3917   -3.7872 C.ar    1  LIG1        0.0268
      8 C          -1.2152    0.4587   -1.6536 C.ar    1  LIG1        0.0316
      9 C         -10.7339   -3.0935    1.6603 C.ar    1  LIG1       -0.0007
     10 C          -2.5450    0.8285   -1.7748 C.ar    1  LIG1       -0.0123
     11 C          -9.8652   -3.9759    1.0147 C.ar    1  LIG1        0.0379
     12 C         -12.5408   -4.6417    1.2061 C.ar    1  LIG1        0.0413
     13 C          -8.6545   -2.2082    1.7074 C.ar    1  LIG1        0.0945
     14 C          -7.4659   -1.3441    1.9256 C.2     1  LIG1        0.2576
     15 C          -4.8102   -0.1750    0.4042 C.2     1  LIG1        0.2316
     16 C          -2.6321    0.4316    1.4856 C.3     1  LIG1        0.0031
     17 C          -3.2698    1.4978   -0.6430 C.3     1  LIG1        0.0404
     18 C          -5.0200   -1.1143    1.5788 C.3     1  LIG1        0.0887
     19 N          -0.5056   -0.1465   -2.6324 N.ar    1  LIG1       -0.2643
     20 N          -8.6096   -3.4128    1.0582 N.ar    1  LIG1       -0.3101
     21 N          -6.2587   -1.8223    1.4259 N.am    1  LIG1       -0.3013
     22 N          -3.6175    0.5567    0.4144 N.am    1  LIG1       -0.2991
     23 O          -7.5966   -0.2874    2.5379 O.2     1  LIG1       -0.2704
     24 O          -5.6552   -0.0843   -0.4904 O.2     1  LIG1       -0.2756
     25 CL        -14.2070   -5.0660    1.3183 Cl      1  LIG1       -0.0843
     26 H          -2.9726   -0.2817   -4.9546 H       1  LIG1        0.0639
     27 H          -4.2307    0.8301   -3.1210 H       1  LIG1        0.0627
     28 H          -9.6018   -5.8584   -0.0380 H       1  LIG1        0.0643
     29 H         -12.0020   -6.4406    0.1414 H       1  LIG1        0.0639
     30 H         -12.7907   -2.7613    2.2562 H       1  LIG1        0.0645
     31 H         -10.3148   -1.1130    2.6264 H       1  LIG1        0.0651
     32 H          -0.5771   -0.8776   -4.5597 H       1  LIG1        0.0839
     33 H          -0.6611    0.6429   -0.7385 H       1  LIG1        0.0843
     34 H          -1.9118   -0.3543    1.2438 H       1  LIG1        0.0433
     35 H          -3.1271    0.1777    2.4268 H       1  LIG1        0.0433
     36 H          -2.0937    1.3743    1.6159 H       1  LIG1        0.0433
     37 H          -2.6518    2.2874   -0.2021 H       1  LIG1        0.0520
     38 H          -4.1961    1.9663   -0.9920 H       1  LIG1        0.0520
     39 H          -4.2182   -1.8561    1.6197 H       1  LIG1        0.0567
     40 H          -5.0765   -0.5496    2.5129 H       1  LIG1        0.0567
     41 H          -7.7771   -3.8312    0.6664 H       1  LIG1        0.1529
     42 H          -6.2260   -2.7405    0.9840 H       1  LIG1        0.1503
@<TRIPOS>BOND
     1     1     2   ar
     2     1     7   ar
     3     2    10   ar
     4     3     4   ar
     5     3    11   ar
     6     4    12   ar
     7     5     9   ar
     8     5    12   ar
     9     6     9   ar
    10     6    13   ar
    11     7    19   ar
    12     8    10   ar
    13     8    19   ar
    14     9    11   ar
    15    10    17    1
    16    11    20   ar
    17    12    25    1
    18    13    14    1
    19    13    20   ar
    20    14    21   am
    21    14    23    2
    22    15    18    1
    23    15    22   am
    24    15    24    2
    25    16    22    1
    26    17    22    1
    27    18    21    1
    28     1    26    1
    29     2    27    1
    30     3    28    1
    31     4    29    1
    32     5    30    1
    33     6    31    1
    34     7    32    1
    35     8    33    1
    36    16    34    1
    37    16    35    1
    38    16    36    1
    39    17    37    1
    40    17    38    1
    41    18    39    1
    42    18    40    1
    43    20    41    1
    44    21    42    1
