@<TRIPOS>MOLECULE
ChEBML622680
 43 46 0 0 0
SMALL
USER_CHARGES

@<TRIPOS>ATOM
      1 C          -1.9504    0.9044   -3.1416 C.ar    1  LIG1       -0.0432
      2 C          -6.4969   -2.6600   -0.4404 C.ar    1  LIG1       -0.0486
      3 C          -1.7133   -0.4031   -2.7324 C.ar    1  LIG1       -0.0462
      4 C         -11.7606   -5.4192    0.7026 C.ar    1  LIG1       -0.0482
      5 C         -12.1988   -3.0783    1.1095 C.ar    1  LIG1       -0.0482
      6 C         -10.3949   -5.1932    0.8733 C.ar    1  LIG1       -0.0402
      7 C         -10.8330   -2.8524    1.2803 C.ar    1  LIG1       -0.0402
      8 C          -5.5065   -2.1367   -1.2603 C.ar    1  LIG1       -0.0334
      9 C          -3.1419    1.4982   -2.7575 C.ar    1  LIG1        0.0276
     10 C          -6.4408   -0.2742    2.3186 C.ar    1  LIG1        0.0533
     11 C          -8.0512   -1.8377    2.8036 C.ar    1  LIG1        0.0489
     12 C          -6.8129   -2.0294    0.7707 C.ar    1  LIG1        0.0247
     13 C         -12.6627   -4.3617    0.8207 C.ar    1  LIG1        0.0556
     14 C          -2.6615   -1.0676   -1.9625 C.ar    1  LIG1        0.0834
     15 C          -6.0996   -0.8678    1.1147 C.ar    1  LIG1        0.0912
     16 C          -9.9311   -3.9099    1.1623 C.ar    1  LIG1        0.0303
     17 C          -7.8042   -2.5230    1.6278 C.ar    1  LIG1        0.0584
     18 C          -4.8621   -0.9913   -0.8354 C.ar    1  LIG1        0.0901
     19 C          -3.8211   -0.3854   -1.6310 C.ar    1  LIG1        0.1008
     20 C         -14.1230   -4.6021    0.6378 C.3     1  LIG1        0.4160
     21 C          -2.4051   -2.4699   -1.5265 C.3     1  LIG1        0.4181
     22 N          -7.3921   -0.7217    3.1722 N.ar    1  LIG1       -0.2604
     23 N          -4.0867    0.8848   -2.0100 N.ar    1  LIG1       -0.2539
     24 N          -5.1366   -0.3526    0.3250 N.ar    1  LIG1       -0.2444
     25 N          -8.5512   -3.6815    1.3368 N.pl3   1  LIG1       -0.3131
     26 F         -14.4332   -5.9031    0.3597 F       1  LIG1       -0.1661
     27 F         -14.8712   -4.2849    1.7357 F       1  LIG1       -0.1661
     28 F         -14.6510   -3.8728   -0.3880 F       1  LIG1       -0.1661
     29 F          -1.2068   -2.9667   -1.9554 F       1  LIG1       -0.1660
     30 F          -2.3898   -2.6271   -0.1696 F       1  LIG1       -0.1660
     31 F          -3.3481   -3.3439   -1.9852 F       1  LIG1       -0.1660
     32 H          -1.2246    1.4409   -3.7421 H       1  LIG1        0.0639
     33 H          -7.0110   -3.5614   -0.7645 H       1  LIG1        0.0631
     34 H          -0.7869   -0.8945   -3.0173 H       1  LIG1        0.0630
     35 H         -12.1132   -6.4219    0.4767 H       1  LIG1        0.0629
     36 H         -12.8938   -2.2481    1.2018 H       1  LIG1        0.0629
     37 H          -9.7005   -6.0239    0.7778 H       1  LIG1        0.0642
     38 H         -10.4826   -1.8481    1.5045 H       1  LIG1        0.0642
     39 H          -5.2590   -2.6219   -2.1987 H       1  LIG1        0.0646
     40 H          -3.3753    2.5158   -3.0525 H       1  LIG1        0.0840
     41 H          -5.9335    0.6273    2.6527 H       1  LIG1        0.0863
     42 H          -8.8073   -2.1723    3.5072 H       1  LIG1        0.0860
     43 H          -7.9832   -4.5178    1.2311 H       1  LIG1        0.1528
@<TRIPOS>BOND
     1     1     3   ar
     2     1     9   ar
     3     2     8   ar
     4     2    12   ar
     5     3    14   ar
     6     4     6   ar
     7     4    13   ar
     8     5     7   ar
     9     5    13   ar
    10     6    16   ar
    11     7    16   ar
    12     8    18   ar
    13     9    23   ar
    14    10    15   ar
    15    10    22   ar
    16    11    17   ar
    17    11    22   ar
    18    12    15   ar
    19    12    17   ar
    20    13    20    1
    21    14    19   ar
    22    14    21    1
    23    15    24   ar
    24    16    25    1
    25    17    25    1
    26    18    19    1
    27    18    24   ar
    28    19    23   ar
    29    20    26    1
    30    20    27    1
    31    20    28    1
    32    21    29    1
    33    21    30    1
    34    21    31    1
    35     1    32    1
    36     2    33    1
    37     3    34    1
    38     4    35    1
    39     5    36    1
    40     6    37    1
    41     7    38    1
    42     8    39    1
    43     9    40    1
    44    10    41    1
    45    11    42    1
    46    25    43    1
