@<TRIPOS>MOLECULE
ChEBML988941
 40 42 0 0 0
SMALL
USER_CHARGES

@<TRIPOS>ATOM
      1 C          -3.1780    1.1178   -3.1875 C.ar    1  LIG1       -0.0602
      2 C          -1.9418    0.6562   -3.6398 C.ar    1  LIG1       -0.0595
      3 C          -3.7305    0.5987   -2.0166 C.ar    1  LIG1       -0.0380
      4 C          -1.2582   -0.3245   -2.9211 C.ar    1  LIG1       -0.0299
      5 C          -8.6703   -3.5980    1.2392 C.ar    1  LIG1       -0.0380
      6 C          -9.9984   -4.0679    1.2011 C.ar    1  LIG1       -0.0368
      7 C          -3.0467   -0.3820   -1.2979 C.ar    1  LIG1        0.0632
      8 C          -1.8106   -0.8437   -1.7502 C.ar    1  LIG1        0.0959
      9 C          -8.6248   -2.3094    1.7478 C.ar    1  LIG1        0.0847
     10 C         -10.8899   -3.1429    1.6704 C.ar    1  LIG1       -0.0067
     11 C          -7.4893   -1.4684    1.9515 C.2     1  LIG1        0.3000
     12 C          -4.8340   -0.5460    0.4638 C.2     1  LIG1        0.2427
     13 C         -10.6860   -5.3137    0.7846 C.3     1  LIG1       -0.0267
     14 C         -12.2989   -3.5980    1.6487 C.3     1  LIG1       -0.0209
     15 C         -12.1828   -4.8685    0.7499 C.3     1  LIG1       -0.0446
     16 C          -1.3858   -3.1592   -1.4132 C.3     1  LIG1        0.0423
     17 C          -5.0959   -1.3275    1.7329 C.3     1  LIG1        0.1336
     18 N          -3.6205   -0.8992   -0.1124 N.am    1  LIG1       -0.2812
     19 O          -7.5202   -0.3057    2.4188 O.2     1  LIG1       -0.2600
     20 O          -5.6448    0.2850    0.0658 O.2     1  LIG1       -0.2746
     21 O          -1.1262   -1.8016   -1.0632 O.3     1  LIG1       -0.3473
     22 O          -6.3087   -2.0718    1.5752 O.3     1  LIG1       -0.3019
     23 S         -10.1926   -1.7065    2.1664 S.2     1  LIG1       -0.0879
     24 H          -3.7098    1.8818   -3.7470 H       1  LIG1        0.0623
     25 H          -1.5114    1.0610   -4.5510 H       1  LIG1        0.0623
     26 H          -4.6944    0.9665   -1.6741 H       1  LIG1        0.0643
     27 H          -0.2955   -0.6794   -3.2792 H       1  LIG1        0.0651
     28 H          -7.7978   -4.1532    0.9190 H       1  LIG1        0.0640
     29 H         -10.3575   -5.6737   -0.1942 H       1  LIG1        0.0316
     30 H         -10.5385   -6.1011    1.5311 H       1  LIG1        0.0316
     31 H         -12.6366   -3.8691    2.6542 H       1  LIG1        0.0322
     32 H         -12.9850   -2.8663    1.2139 H       1  LIG1        0.0322
     33 H         -12.4503   -4.6007   -0.2810 H       1  LIG1        0.0273
     34 H         -12.8612   -5.6665    1.0678 H       1  LIG1        0.0273
     35 H          -0.7763   -3.8195   -0.7915 H       1  LIG1        0.0535
     36 H          -1.1504   -3.3155   -2.4690 H       1  LIG1        0.0535
     37 H          -2.4431   -3.3745   -1.2419 H       1  LIG1        0.0535
     38 H          -4.2661   -2.0128    1.9310 H       1  LIG1        0.0675
     39 H          -5.1972   -0.6519    2.5876 H       1  LIG1        0.0675
     40 H          -3.0818   -1.6125    0.3745 H       1  LIG1        0.1558
@<TRIPOS>BOND
     1     1     2   ar
     2     1     3   ar
     3     2     4   ar
     4     3     7   ar
     5     4     8   ar
     6     5     6   ar
     7     5     9   ar
     8     6    10   ar
     9     6    13    1
    10     7     8   ar
    11     7    18    1
    12     8    21    1
    13     9    11    1
    14     9    23   ar
    15    10    14    1
    16    10    23   ar
    17    11    19    2
    18    11    22    1
    19    12    17    1
    20    12    18   am
    21    12    20    2
    22    13    15    1
    23    14    15    1
    24    16    21    1
    25    17    22    1
    26     1    24    1
    27     2    25    1
    28     3    26    1
    29     4    27    1
    30     5    28    1
    31    13    29    1
    32    13    30    1
    33    14    31    1
    34    14    32    1
    35    15    33    1
    36    15    34    1
    37    16    35    1
    38    16    36    1
    39    16    37    1
    40    17    38    1
    41    17    39    1
    42    18    40    1
