@<TRIPOS>MOLECULE
ChEBML53386
 60 63 0 0 0
SMALL
USER_CHARGES

@<TRIPOS>ATOM
      1 C          -2.3573    1.0044   -3.4453 C.ar    1  LIG1       -0.0418
      2 C         -12.1183   -3.4250    2.0036 C.ar    1  LIG1       -0.0511
      3 C          -1.7985   -0.2075   -3.0628 C.ar    1  LIG1       -0.0360
      4 C         -12.6526   -4.5300    1.4123 C.ar    1  LIG1       -0.0389
      5 C          -9.9418   -2.0520    2.2560 C.ar    1  LIG1       -0.0262
      6 C         -10.5338   -5.0490    0.3784 C.ar    1  LIG1       -0.0176
      7 C          -3.5248    1.4311   -2.8456 C.ar    1  LIG1        0.0292
      8 C         -10.7694   -3.1029    1.7951 C.ar    1  LIG1       -0.0021
      9 C          -9.9721   -3.9252    0.9739 C.ar    1  LIG1        0.0397
     10 C         -11.8674   -5.3485    0.5975 C.ar    1  LIG1        0.0448
     11 C          -2.4409   -0.9519   -2.0822 C.ar    1  LIG1        0.0672
     12 C          -8.7019   -2.2398    1.7313 C.ar    1  LIG1        0.0947
     13 C          -3.6228   -0.4586   -1.5237 C.ar    1  LIG1        0.1412
     14 C          -7.5397   -1.3713    1.9598 C.2     1  LIG1        0.2599
     15 C          -4.4104   -0.3186    0.6275 C.3     1  LIG1        0.0288
     16 C          -5.6366   -1.4515   -1.0480 C.3     1  LIG1        0.0288
     17 C          -5.1103   -1.0750    1.7613 C.3     1  LIG1        0.0303
     18 C          -6.4173   -2.2827   -0.0249 C.3     1  LIG1        0.0303
     19 C           0.0001   -3.6648   -1.3346 C.3     1  LIG1       -0.0470
     20 C          -1.1045   -3.4832   -3.5682 C.3     1  LIG1       -0.0470
     21 C         -13.6157   -5.2437   -2.1156 C.3     1  LIG1        0.0225
     22 C          -0.7118   -2.7180   -2.3030 C.3     1  LIG1        0.0142
     23 N          -4.1163    0.7042   -1.9153 N.ar    1  LIG1       -0.2394
     24 N          -8.7113   -3.3767    0.9427 N.ar    1  LIG1       -0.3100
     25 N          -4.2832   -1.1945   -0.5427 N.pl3   1  LIG1       -0.3112
     26 N          -6.4039   -1.5679    1.2616 N.am    1  LIG1       -0.2936
     27 N          -1.9155   -2.1804   -1.6640 N.pl3   1  LIG1       -0.3393
     28 N         -12.4307   -6.4760    0.0007 N.pl3   1  LIG1       -0.2632
     29 O          -7.6024   -0.4743    2.7795 O.2     1  LIG1       -0.2701
     30 O         -14.1388   -7.7034   -1.1744 O.2     1  LIG1       -0.4814
     31 O         -14.7171   -5.7680    0.2763 O.2     1  LIG1       -0.4814
     32 S         -13.9142   -6.3731   -0.7279 S.O2    1  LIG1       -0.1957
     33 H          -1.8828    1.6080   -4.2049 H       1  LIG1        0.0639
     34 H         -12.7329   -2.7978    2.6324 H       1  LIG1        0.0630
     35 H          -0.8853   -0.5629   -3.5169 H       1  LIG1        0.0644
     36 H         -13.6917   -4.7752    1.5753 H       1  LIG1        0.0643
     37 H         -10.2415   -1.2450    2.9081 H       1  LIG1        0.0651
     38 H          -9.9320   -5.6858   -0.2529 H       1  LIG1        0.0663
     39 H          -3.9612    2.3737   -3.1414 H       1  LIG1        0.0840
     40 H          -3.4195   -0.0064    0.9569 H       1  LIG1        0.0485
     41 H          -4.9976    0.5603    0.3609 H       1  LIG1        0.0485
     42 H          -6.1487   -0.5034   -1.2123 H       1  LIG1        0.0485
     43 H          -5.5751   -1.9983   -1.9889 H       1  LIG1        0.0485
     44 H          -4.4937   -1.9167    2.0763 H       1  LIG1        0.0486
     45 H          -5.2742   -0.4035    2.6042 H       1  LIG1        0.0486
     46 H          -5.9455   -3.2582    0.0923 H       1  LIG1        0.0486
     47 H          -7.4456   -2.4099   -0.3633 H       1  LIG1        0.0486
     48 H           0.8957   -4.0648   -1.8099 H       1  LIG1        0.0249
     49 H           0.2798   -3.1197   -0.4331 H       1  LIG1        0.0249
     50 H          -0.6682   -4.4846   -1.0708 H       1  LIG1        0.0249
     51 H          -1.7727   -4.3029   -3.3045 H       1  LIG1        0.0249
     52 H          -1.6116   -2.8086   -4.2581 H       1  LIG1        0.0249
     53 H          -0.2089   -3.8832   -4.0436 H       1  LIG1        0.0249
     54 H         -12.8563   -5.6680   -2.7725 H       1  LIG1        0.0442
     55 H         -14.5409   -5.1016   -2.6740 H       1  LIG1        0.0442
     56 H         -13.2703   -4.2828   -1.7342 H       1  LIG1        0.0442
     57 H          -0.0436   -1.8983   -2.5667 H       1  LIG1        0.0497
     58 H          -7.9532   -3.7299    0.4513 H       1  LIG1        0.1529
     59 H          -2.3486   -2.6757   -0.9512 H       1  LIG1        0.1469
     60 H         -11.9536   -7.3205    0.0124 H       1  LIG1        0.1702
@<TRIPOS>BOND
     1     1     3   ar
     2     1     7   ar
     3     2     4   ar
     4     2     8   ar
     5     3    11   ar
     6     4    10   ar
     7     5     8   ar
     8     5    12   ar
     9     6     9   ar
    10     6    10   ar
    11     7    23   ar
    12     8     9   ar
    13     9    24   ar
    14    10    28    1
    15    11    13   ar
    16    11    27    1
    17    12    14    1
    18    12    24   ar
    19    13    23   ar
    20    13    25    1
    21    14    26   am
    22    14    29    2
    23    15    17    1
    24    15    25    1
    25    16    18    1
    26    16    25    1
    27    17    26    1
    28    18    26    1
    29    19    22    1
    30    20    22    1
    31    21    32    1
    32    22    27    1
    33    28    32    1
    34    30    32    2
    35    31    32    2
    36     1    33    1
    37     2    34    1
    38     3    35    1
    39     4    36    1
    40     5    37    1
    41     6    38    1
    42     7    39    1
    43    15    40    1
    44    15    41    1
    45    16    42    1
    46    16    43    1
    47    17    44    1
    48    17    45    1
    49    18    46    1
    50    18    47    1
    51    19    48    1
    52    19    49    1
    53    19    50    1
    54    20    51    1
    55    20    52    1
    56    20    53    1
    57    21    54    1
    58    21    55    1
    59    21    56    1
    60    22    57    1
    61    24    58    1
    62    27    59    1
    63    28    60    1
