@<TRIPOS>MOLECULE
ChEBML430589
 65 69 0 0 0
SMALL
USER_CHARGES

@<TRIPOS>ATOM
      1 C         -10.5887   -4.6325   -0.2956 C.ar    1  LIG1       -0.0339
      2 C         -11.9199   -5.0049   -0.0928 C.ar    1  LIG1       -0.0385
      3 C          -2.3525    0.6361   -3.4228 C.ar    1  LIG1       -0.0252
      4 C         -12.0234   -3.5561    1.8221 C.ar    1  LIG1       -0.0310
      5 C          -8.7176   -1.9184    2.2349 C.ar    1  LIG1       -0.0181
      6 C          -3.4146    1.3158   -2.8621 C.ar    1  LIG1        0.0322
      7 C          -2.0794   -0.6009   -2.8754 C.ar    1  LIG1        0.0322
      8 C         -10.6845   -3.1817    1.6179 C.ar    1  LIG1        0.0051
      9 C         -10.0408   -2.2678    2.4632 C.ar    1  LIG1       -0.0382
     10 C          -9.9488   -3.7245    0.5437 C.ar    1  LIG1        0.0729
     11 C         -12.6385   -4.4662    0.9672 C.ar    1  LIG1        0.0332
     12 C          -8.0802   -2.5017    1.1587 C.ar    1  LIG1        0.1210
     13 C          -3.7941   -0.3820   -1.3992 C.ar    1  LIG1        0.2162
     14 C         -14.5850   -6.0550    0.8629 C.2     1  LIG1        0.2191
     15 C         -16.6339   -7.4208    0.9232 C.3     1  LIG1       -0.0416
     16 C         -16.7603   -4.9338    0.5097 C.3     1  LIG1       -0.0416
     17 C         -16.6601   -7.6750   -0.5830 C.3     1  LIG1       -0.0499
     18 C         -16.7880   -5.1835   -0.9973 C.3     1  LIG1       -0.0499
     19 C          -6.3209   -0.8180    1.3298 C.3     1  LIG1        0.0288
     20 C          -6.0499   -2.8335   -0.1371 C.3     1  LIG1        0.0288
     21 C          -5.6393   -0.1049    0.1587 C.3     1  LIG1        0.0302
     22 C          -4.5969   -2.3556   -0.2082 C.3     1  LIG1        0.0302
     23 C         -16.0345   -6.0563    1.2419 C.3     1  LIG1        0.0362
     24 C         -17.3930   -6.5539   -1.3331 C.3     1  LIG1       -0.0442
     25 C         -10.7329   -1.6360    3.6300 C.3     1  LIG1       -0.0390
     26 C         -17.3610   -6.8032   -2.8397 C.3     1  LIG1       -0.0625
     27 N          -4.1598    0.8347   -1.8456 N.ar    1  LIG1       -0.2235
     28 N          -2.7823   -1.1426   -1.8591 N.ar    1  LIG1       -0.2235
     29 N          -8.6646   -3.3873    0.3196 N.ar    1  LIG1       -0.2329
     30 N          -6.7289   -2.1416    0.9302 N.pl3   1  LIG1       -0.3127
     31 N          -4.5314   -0.9029   -0.3661 N.pl3   1  LIG1       -0.2969
     32 N         -13.9870   -4.8409    1.1755 N.am    1  LIG1       -0.2852
     33 O         -14.0691   -7.0427    0.3498 O.2     1  LIG1       -0.2770
     34 H         -10.0474   -5.0689   -1.1332 H       1  LIG1        0.0646
     35 H         -12.3821   -5.7171   -0.7719 H       1  LIG1        0.0643
     36 H          -1.7702    1.0461   -4.2370 H       1  LIG1        0.0655
     37 H         -12.5994   -3.1429    2.6479 H       1  LIG1        0.0649
     38 H          -8.2062   -1.2120    2.8814 H       1  LIG1        0.0662
     39 H          -3.7051    2.2955   -3.2264 H       1  LIG1        0.0841
     40 H          -1.2626   -1.2087   -3.2496 H       1  LIG1        0.0841
     41 H         -17.6546   -7.4898    1.3224 H       1  LIG1        0.0274
     42 H         -16.0566   -8.2115    1.4181 H       1  LIG1        0.0274
     43 H         -16.2713   -3.9732    0.7129 H       1  LIG1        0.0274
     44 H         -17.7894   -4.8402    0.8808 H       1  LIG1        0.0274
     45 H         -15.6305   -7.7609   -0.9531 H       1  LIG1        0.0269
     46 H         -17.1490   -8.6367   -0.7784 H       1  LIG1        0.0269
     47 H         -17.3671   -4.3898   -1.4842 H       1  LIG1        0.0269
     48 H         -15.7661   -5.1192   -1.3925 H       1  LIG1        0.0269
     49 H          -5.6164   -0.9214    2.1641 H       1  LIG1        0.0485
     50 H          -7.1563   -0.2039    1.6889 H       1  LIG1        0.0485
     51 H          -6.5479   -2.6373   -1.0956 H       1  LIG1        0.0485
     52 H          -6.0650   -3.9170    0.0306 H       1  LIG1        0.0485
     53 H          -6.3727    0.0741   -0.6386 H       1  LIG1        0.0486
     54 H          -5.2695    0.8706    0.4963 H       1  LIG1        0.0486
     55 H          -4.0695   -2.6280    0.7143 H       1  LIG1        0.0486
     56 H          -4.0879   -2.8703   -1.0329 H       1  LIG1        0.0486
     57 H         -16.0864   -5.8803    2.3236 H       1  LIG1        0.0401
     58 H         -18.4438   -6.5549   -1.0139 H       1  LIG1        0.0300
     59 H         -11.2155   -0.7026    3.3216 H       1  LIG1        0.0280
     60 H         -11.4944   -2.3056    4.0453 H       1  LIG1        0.0280
     61 H         -10.0235   -1.4160    4.4360 H       1  LIG1        0.0280
     62 H         -16.3306   -6.8087   -3.1911 H       1  LIG1        0.0233
     63 H         -17.9096   -6.0170   -3.3556 H       1  LIG1        0.0233
     64 H         -17.8197   -7.7648   -3.0644 H       1  LIG1        0.0233
     65 H         -14.5756   -4.1300    1.6052 H       1  LIG1        0.1556
@<TRIPOS>BOND
     1     1     2   ar
     2     1    10   ar
     3     2    11   ar
     4     3     6   ar
     5     3     7   ar
     6     4     8   ar
     7     4    11   ar
     8     5     9   ar
     9     5    12   ar
    10     6    27   ar
    11     7    28   ar
    12     8     9   ar
    13     8    10   ar
    14     9    25    1
    15    10    29   ar
    16    11    32    1
    17    12    29   ar
    18    12    30    1
    19    13    27   ar
    20    13    28   ar
    21    13    31    1
    22    14    23    1
    23    14    32   am
    24    14    33    2
    25    15    17    1
    26    15    23    1
    27    16    18    1
    28    16    23    1
    29    17    24    1
    30    18    24    1
    31    19    21    1
    32    19    30    1
    33    20    22    1
    34    20    30    1
    35    21    31    1
    36    22    31    1
    37    24    26    1
    38     1    34    1
    39     2    35    1
    40     3    36    1
    41     4    37    1
    42     5    38    1
    43     6    39    1
    44     7    40    1
    45    15    41    1
    46    15    42    1
    47    16    43    1
    48    16    44    1
    49    17    45    1
    50    17    46    1
    51    18    47    1
    52    18    48    1
    53    19    49    1
    54    19    50    1
    55    20    51    1
    56    20    52    1
    57    21    53    1
    58    21    54    1
    59    22    55    1
    60    22    56    1
    61    23    57    1
    62    24    58    1
    63    25    59    1
    64    25    60    1
    65    25    61    1
    66    26    62    1
    67    26    63    1
    68    26    64    1
    69    32    65    1
