@<TRIPOS>MOLECULE
ChEBML644947
 45 47 0 0 0
SMALL
USER_CHARGES

@<TRIPOS>ATOM
      1 C          -2.6611    1.5399   -3.1151 C.ar    1  LIG1       -0.0613
      2 C          -2.1705    0.4059   -3.7622 C.ar    1  LIG1       -0.0596
      3 C          -2.9204    1.5037   -1.7450 C.ar    1  LIG1       -0.0470
      4 C          -8.7007   -3.2450    0.8546 C.ar    1  LIG1       -0.0485
      5 C          -9.8006   -2.0688    2.6556 C.ar    1  LIG1       -0.0485
      6 C          -1.9392   -0.7644   -3.0394 C.ar    1  LIG1       -0.0310
      7 C          -9.8354   -4.0368    0.6786 C.ar    1  LIG1       -0.0256
      8 C         -10.9355   -2.8606    2.4796 C.ar    1  LIG1       -0.0256
      9 C          -8.6833   -2.2610    1.8432 C.ar    1  LIG1        0.0180
     10 C          -2.6890    0.3334   -1.0221 C.ar    1  LIG1        0.0675
     11 C          -2.1984   -0.8007   -1.6693 C.ar    1  LIG1        0.0871
     12 C         -10.9528   -3.8446    1.4911 C.ar    1  LIG1        0.1228
     13 C          -7.4912   -1.4294    2.0277 C.2     1  LIG1        0.1656
     14 C          -2.9670    0.3171    0.4100 C.2     1  LIG1        0.2482
     15 C          -5.0829   -1.4975    2.6161 C.3     1  LIG1       -0.0271
     16 C          -5.8349   -1.8477    0.2097 C.3     1  LIG1       -0.0271
     17 C          -4.5990   -0.1024    2.2200 C.3     1  LIG1        0.0151
     18 C          -5.3394   -0.4366   -0.1030 C.3     1  LIG1        0.0151
     19 C          -6.1655   -2.0474    1.6885 C.3     1  LIG1        0.0253
     20 C          -1.4629   -3.0615   -1.7233 C.3     1  LIG1        0.0423
     21 N          -4.2464   -0.0606    0.8013 N.am    1  LIG1       -0.2977
     22 O          -7.5058   -0.2748    2.4416 O.2     1  LIG1       -0.2938
     23 O          -2.0385    0.6397    1.1449 O.2     1  LIG1       -0.2715
     24 O          -1.9642   -1.9528   -0.9799 O.3     1  LIG1       -0.3485
     25 F         -12.0426   -4.6048    1.3220 F       1  LIG1       -0.2069
     26 H          -2.8411    2.4512   -3.6784 H       1  LIG1        0.0623
     27 H          -1.9694    0.4347   -4.8291 H       1  LIG1        0.0623
     28 H          -3.3022    2.3936   -1.2510 H       1  LIG1        0.0632
     29 H          -7.8356   -3.4033    0.2159 H       1  LIG1        0.0631
     30 H          -9.7983   -1.3044    3.4288 H       1  LIG1        0.0631
     31 H          -1.5568   -1.6442   -3.5496 H       1  LIG1        0.0650
     32 H          -9.8492   -4.8028   -0.0910 H       1  LIG1        0.0653
     33 H         -11.8055   -2.7113    3.1125 H       1  LIG1        0.0653
     34 H          -4.2242   -2.1810    2.5815 H       1  LIG1        0.0290
     35 H          -5.4321   -1.4789    3.6555 H       1  LIG1        0.0290
     36 H          -6.7060   -2.0742   -0.4166 H       1  LIG1        0.0290
     37 H          -5.0474   -2.5608   -0.0668 H       1  LIG1        0.0290
     38 H          -5.3850    0.6432    2.3871 H       1  LIG1        0.0470
     39 H          -3.7420    0.1821    2.8393 H       1  LIG1        0.0470
     40 H          -5.0295   -0.3850   -1.1499 H       1  LIG1        0.0470
     41 H          -6.1415    0.2984    0.0295 H       1  LIG1        0.0470
     42 H          -6.2834   -3.1210    1.8832 H       1  LIG1        0.0388
     43 H          -1.3203   -3.9145   -1.0553 H       1  LIG1        0.0535
     44 H          -0.5133   -2.7886   -2.1907 H       1  LIG1        0.0535
     45 H          -2.1858   -3.3257   -2.4987 H       1  LIG1        0.0535
@<TRIPOS>BOND
     1     1     2   ar
     2     1     3   ar
     3     2     6   ar
     4     3    10   ar
     5     4     7   ar
     6     4     9   ar
     7     5     8   ar
     8     5     9   ar
     9     6    11   ar
    10     7    12   ar
    11     8    12   ar
    12     9    13    1
    13    10    11   ar
    14    10    14    1
    15    11    24    1
    16    12    25    1
    17    13    19    1
    18    13    22    2
    19    14    21   am
    20    14    23    2
    21    15    17    1
    22    15    19    1
    23    16    18    1
    24    16    19    1
    25    17    21    1
    26    18    21    1
    27    20    24    1
    28     1    26    1
    29     2    27    1
    30     3    28    1
    31     4    29    1
    32     5    30    1
    33     6    31    1
    34     7    32    1
    35     8    33    1
    36    15    34    1
    37    15    35    1
    38    16    36    1
    39    16    37    1
    40    17    38    1
    41    17    39    1
    42    18    40    1
    43    18    41    1
    44    19    42    1
    45    20    43    1
    46    20    44    1
    47    20    45    1
