@<TRIPOS>MOLECULE
ChEBML198664
 51 53 0 0 0
SMALL
USER_CHARGES

@<TRIPOS>ATOM
      1 C          -1.9977    0.9248   -3.2632 C.ar    1  LIG1       -0.0422
      2 C         -11.8163   -5.2644    1.9869 C.ar    1  LIG1       -0.0572
      3 C         -12.3543   -2.9466    1.5686 C.ar    1  LIG1       -0.0572
      4 C         -10.4770   -5.0062    1.6956 C.ar    1  LIG1       -0.0404
      5 C         -11.0148   -2.6884    1.2771 C.ar    1  LIG1       -0.0404
      6 C          -1.8309   -0.4375   -3.0404 C.ar    1  LIG1       -0.0384
      7 C          -3.0968    1.5456   -2.6918 C.ar    1  LIG1        0.0292
      8 C         -12.7551   -4.2346    1.9235 C.ar    1  LIG1       -0.0479
      9 C         -10.0762   -3.7182    1.3407 C.ar    1  LIG1        0.0340
     10 C          -2.7552   -1.1276   -2.2640 C.ar    1  LIG1        0.0809
     11 C          -3.8202   -0.4148   -1.7372 C.ar    1  LIG1        0.1388
     12 C          -8.1579   -2.2317    1.3627 C.2     1  LIG1        0.3050
     13 C          -4.9453   -0.6539    0.4189 C.3     1  LIG1        0.0289
     14 C          -5.8321   -1.7859   -1.6423 C.3     1  LIG1        0.0289
     15 C          -6.4346   -0.5623    0.7433 C.3     1  LIG1        0.0315
     16 C          -6.6432   -2.6137   -0.6443 C.3     1  LIG1        0.0315
     17 C         -15.2574   -6.6291   -0.8481 C.3     1  LIG1       -0.0654
     18 C         -14.1871   -4.5108    2.2350 C.3     1  LIG1       -0.0279
     19 C         -14.4411   -6.2088    0.3636 C.3     1  LIG1       -0.0558
     20 C         -14.9822   -4.9211    0.9847 C.3     1  LIG1       -0.0495
     21 N          -4.0156    0.9087   -1.9318 N.ar    1  LIG1       -0.2398
     22 N          -4.7412   -1.0789   -0.9686 N.pl3   1  LIG1       -0.3115
     23 N          -7.1178   -1.8316    0.5026 N.am    1  LIG1       -0.2824
     24 N          -8.7322   -3.4587    1.0484 N.am    1  LIG1       -0.2691
     25 O          -8.5270   -1.5518    2.3257 O.2     1  LIG1       -0.2537
     26 CL         -2.5330   -2.8147   -1.9978 Cl      1  LIG1       -0.0805
     27 H          -1.2900    1.4831   -3.8655 H       1  LIG1        0.0639
     28 H         -12.1201   -6.2716    2.2605 H       1  LIG1        0.0626
     29 H         -13.0790   -2.1384    1.5158 H       1  LIG1        0.0626
     30 H          -9.7539   -5.8163    1.7486 H       1  LIG1        0.0642
     31 H         -10.7136   -1.6811    1.0006 H       1  LIG1        0.0642
     32 H          -0.9759   -0.9459   -3.4787 H       1  LIG1        0.0640
     33 H          -3.2726    2.6066   -2.8360 H       1  LIG1        0.0840
     34 H          -4.4786    0.3214    0.6050 H       1  LIG1        0.0485
     35 H          -4.4597   -1.3813    1.0806 H       1  LIG1        0.0485
     36 H          -5.4313   -2.4494   -2.4180 H       1  LIG1        0.0485
     37 H          -6.4875   -1.0562   -2.1349 H       1  LIG1        0.0485
     38 H          -6.5703   -0.2518    1.7846 H       1  LIG1        0.0486
     39 H          -6.9226    0.1892    0.1109 H       1  LIG1        0.0486
     40 H          -7.4992   -3.0607   -1.1604 H       1  LIG1        0.0486
     41 H          -6.0297   -3.4278   -0.2399 H       1  LIG1        0.0486
     42 H         -16.3079   -6.7803   -0.5802 H       1  LIG1        0.0230
     43 H         -14.8739   -7.5611   -1.2754 H       1  LIG1        0.0230
     44 H         -15.2122   -5.8565   -1.6223 H       1  LIG1        0.0230
     45 H         -14.2716   -5.3081    2.9931 H       1  LIG1        0.0316
     46 H         -14.6626   -3.6247    2.6892 H       1  LIG1        0.0316
     47 H         -13.3969   -6.0663    0.0616 H       1  LIG1        0.0264
     48 H         -14.4575   -7.0158    1.1054 H       1  LIG1        0.0264
     49 H         -14.9443   -4.1125    0.2436 H       1  LIG1        0.0270
     50 H         -16.0386   -5.0570    1.2494 H       1  LIG1        0.0270
     51 H          -8.1935   -4.2208    0.6534 H       1  LIG1        0.1573
@<TRIPOS>BOND
     1     1     6   ar
     2     1     7   ar
     3     2     4   ar
     4     2     8   ar
     5     3     5   ar
     6     3     8   ar
     7     4     9   ar
     8     5     9   ar
     9     6    10   ar
    10     7    21   ar
    11     8    18    1
    12     9    24    1
    13    10    11   ar
    14    10    26    1
    15    11    21   ar
    16    11    22    1
    17    12    23   am
    18    12    24   am
    19    12    25    2
    20    13    15    1
    21    13    22    1
    22    14    16    1
    23    14    22    1
    24    15    23    1
    25    16    23    1
    26    17    19    1
    27    18    20    1
    28    19    20    1
    29     1    27    1
    30     2    28    1
    31     3    29    1
    32     4    30    1
    33     5    31    1
    34     6    32    1
    35     7    33    1
    36    13    34    1
    37    13    35    1
    38    14    36    1
    39    14    37    1
    40    15    38    1
    41    15    39    1
    42    16    40    1
    43    16    41    1
    44    17    42    1
    45    17    43    1
    46    17    44    1
    47    18    45    1
    48    18    46    1
    49    19    47    1
    50    19    48    1
    51    20    49    1
    52    20    50    1
    53    24    51    1
