@<TRIPOS>MOLECULE
ChEBML436340
 39 42 0 0 0
SMALL
USER_CHARGES

@<TRIPOS>ATOM
      1 C          -1.6743    0.5665   -4.3076 C.ar    1  LIG1       -0.0622
      2 C          -2.6347    1.5024   -3.9237 C.ar    1  LIG1       -0.0616
      3 C          -1.3472   -0.4874   -3.4544 C.ar    1  LIG1       -0.0616
      4 C         -11.4407   -5.7178    0.3771 C.ar    1  LIG1       -0.0600
      5 C         -12.3121   -5.2676    1.3629 C.ar    1  LIG1       -0.0610
      6 C          -3.2679    1.3844   -2.6865 C.ar    1  LIG1       -0.0544
      7 C          -1.9805   -0.6053   -2.2172 C.ar    1  LIG1       -0.0544
      8 C          -3.0517    0.8272    0.5744 C.ar    1  LIG1       -0.0516
      9 C         -10.2330   -5.0550    0.1400 C.ar    1  LIG1       -0.0352
     10 C          -3.6848    0.7098    1.8117 C.ar    1  LIG1       -0.0295
     11 C         -12.0017   -4.1463    2.1364 C.ar    1  LIG1       -0.0460
     12 C          -4.7773   -0.5279   -0.4371 C.ar    1  LIG1       -0.0302
     13 C          -2.9409    0.3306   -1.8332 C.ar    1  LIG1       -0.0183
     14 C          -3.5980    0.2084   -0.5501 C.ar    1  LIG1       -0.0163
     15 C          -9.8948   -3.9193    0.9074 C.ar    1  LIG1        0.0785
     16 C          -5.4104   -0.6454    0.8003 C.ar    1  LIG1        0.0638
     17 C          -4.8641   -0.0265    1.9247 C.ar    1  LIG1        0.0927
     18 C         -10.7869   -3.4855    1.8928 C.ar    1  LIG1        0.0397
     19 C          -8.7577   -2.1845    1.6586 C.ar    1  LIG1        0.1645
     20 C          -7.7047   -1.2338    1.7822 C.2     1  LIG1        0.2729
     21 N          -8.7376   -3.1640    0.7852 N.ar    1  LIG1       -0.2349
     22 N          -6.6087   -1.3965    0.8995 N.am    1  LIG1       -0.2772
     23 O          -7.7107   -0.3177    2.6400 O.2     1  LIG1       -0.2691
     24 O          -5.4675   -0.1277    3.1427 O.3     1  LIG1       -0.3589
     25 S         -10.1332   -2.0927    2.6712 S.2     1  LIG1       -0.0624
     26 H          -1.1826    0.6576   -5.2718 H       1  LIG1        0.0622
     27 H          -2.8907    2.3220   -4.5886 H       1  LIG1        0.0623
     28 H          -0.6005   -1.2172   -3.7533 H       1  LIG1        0.0623
     29 H         -11.6987   -6.5923   -0.2142 H       1  LIG1        0.0623
     30 H         -13.2477   -5.7934    1.5347 H       1  LIG1        0.0623
     31 H          -4.0147    2.1219   -2.4017 H       1  LIG1        0.0629
     32 H          -1.7155   -1.4326   -1.5629 H       1  LIG1        0.0629
     33 H          -2.1332    1.4048    0.5024 H       1  LIG1        0.0630
     34 H          -9.5595   -5.4155   -0.6325 H       1  LIG1        0.0646
     35 H          -3.2542    1.1950    2.6835 H       1  LIG1        0.0651
     36 H         -12.6870   -3.8010    2.9043 H       1  LIG1        0.0635
     37 H          -5.2065   -1.0118   -1.3127 H       1  LIG1        0.0650
     38 H          -6.6940   -2.1656    0.2396 H       1  LIG1        0.1561
     39 H          -4.9590    0.3597    3.8093 H       1  LIG1        0.2183
@<TRIPOS>BOND
     1     1     2   ar
     2     1     3   ar
     3     2     6   ar
     4     3     7   ar
     5     4     5   ar
     6     4     9   ar
     7     5    11   ar
     8     6    13   ar
     9     7    13   ar
    10     8    10   ar
    11     8    14   ar
    12     9    15   ar
    13    10    17   ar
    14    11    18   ar
    15    12    14   ar
    16    12    16   ar
    17    13    14    1
    18    15    18   ar
    19    15    21   ar
    20    16    17   ar
    21    16    22    1
    22    17    24    1
    23    18    25   ar
    24    19    20    1
    25    19    21   ar
    26    19    25   ar
    27    20    22   am
    28    20    23    2
    29     1    26    1
    30     2    27    1
    31     3    28    1
    32     4    29    1
    33     5    30    1
    34     6    31    1
    35     7    32    1
    36     8    33    1
    37     9    34    1
    38    10    35    1
    39    11    36    1
    40    12    37    1
    41    22    38    1
    42    24    39    1
