@<TRIPOS>MOLECULE
ChEBML205179
 69 72 0 0 0
SMALL
USER_CHARGES

@<TRIPOS>ATOM
      1 C          -1.9229    1.0271   -3.6728 C.ar    1  LIG1       -0.0418
      2 C         -10.6547   -4.2746   -0.3176 C.ar    1  LIG1       -0.0383
      3 C          -1.3695    0.0637   -2.8367 C.ar    1  LIG1       -0.0360
      4 C         -12.0520   -4.2830   -0.3537 C.ar    1  LIG1       -0.0377
      5 C         -12.1722   -3.1577    1.7948 C.ar    1  LIG1       -0.0304
      6 C          -9.8184   -2.6504    2.7981 C.ar    1  LIG1       -0.0261
      7 C          -3.3043    1.1091   -3.7426 C.ar    1  LIG1        0.0292
      8 C         -10.7644   -3.1376    1.8534 C.ar    1  LIG1       -0.0003
      9 C         -10.0397   -3.6953    0.7980 C.ar    1  LIG1        0.0379
     10 C         -12.8010   -3.7338    0.6850 C.ar    1  LIG1        0.0437
     11 C          -2.2027   -0.7763   -2.1063 C.ar    1  LIG1        0.0674
     12 C          -8.5611   -2.9170    2.3073 C.ar    1  LIG1        0.0947
     13 C          -3.5715   -0.6134   -2.2460 C.ar    1  LIG1        0.1411
     14 C          -7.2916   -2.6157    2.9016 C.2     1  LIG1        0.2598
     15 C          -4.3885   -2.1214    0.8469 C.3     1  LIG1       -0.0185
     16 C          -6.3993   -0.9668   -0.1673 C.3     1  LIG1       -0.0185
     17 C          -4.9821   -1.8621    2.2309 C.3     1  LIG1        0.0162
     18 C          -6.9523   -0.7553    1.2430 C.3     1  LIG1        0.0162
     19 C          -4.8705   -1.0956   -0.1868 C.3     1  LIG1        0.0268
     20 C          -0.9554   -4.0327   -0.8419 C.3     1  LIG1       -0.0444
     21 C          -1.1651   -3.1406   -3.1761 C.3     1  LIG1       -0.0444
     22 C           0.6696   -2.3190   -1.6770 C.3     1  LIG1       -0.0444
     23 C          -4.8535   -2.7320   -2.0764 C.3     1  LIG1        0.0018
     24 C         -14.9633   -5.4522    2.5676 C.3     1  LIG1        0.0225
     25 C          -0.7863   -2.7961   -1.7319 C.3     1  LIG1        0.0228
     26 N          -4.1459    0.3108   -3.0483 N.ar    1  LIG1       -0.2394
     27 N          -8.7049   -3.5472    1.1005 N.ar    1  LIG1       -0.3101
     28 N          -6.4472   -1.7807    2.1575 N.am    1  LIG1       -0.2966
     29 N          -1.6446   -1.7520   -1.2593 N.pl3   1  LIG1       -0.3369
     30 N         -14.2278   -3.7579    0.6181 N.pl3   1  LIG1       -0.2633
     31 N          -4.4171   -1.4551   -1.5154 N.pl3   1  LIG1       -0.3142
     32 O          -6.9922   -3.0784    4.0011 O.2     1  LIG1       -0.2702
     33 O         -16.4205   -5.1026    0.4411 O.2     1  LIG1       -0.4814
     34 O         -14.2404   -6.3444    0.2162 O.2     1  LIG1       -0.4814
     35 S         -15.0246   -5.2735    0.7987 S.O2    1  LIG1       -0.1957
     36 H          -1.2930    1.6927   -4.2517 H       1  LIG1        0.0639
     37 H         -10.0724   -4.7024   -1.1268 H       1  LIG1        0.0643
     38 H          -0.2888   -0.0226   -2.7628 H       1  LIG1        0.0644
     39 H         -12.5512   -4.7284   -1.2117 H       1  LIG1        0.0643
     40 H         -12.7590   -2.7301    2.6036 H       1  LIG1        0.0650
     41 H         -10.0388   -2.1578    3.7360 H       1  LIG1        0.0651
     42 H          -3.7862    1.8431   -4.3800 H       1  LIG1        0.0840
     43 H          -3.2940   -2.1175    0.9104 H       1  LIG1        0.0302
     44 H          -4.6906   -3.1230    0.5148 H       1  LIG1        0.0302
     45 H          -6.8304   -1.8900   -0.5761 H       1  LIG1        0.0302
     46 H          -6.7257   -0.1452   -0.8157 H       1  LIG1        0.0302
     47 H          -4.6568   -2.6512    2.9136 H       1  LIG1        0.0470
     48 H          -4.6216   -0.9142    2.6462 H       1  LIG1        0.0470
     49 H          -6.6459    0.2193    1.6399 H       1  LIG1        0.0470
     50 H          -8.0464   -0.7646    1.2138 H       1  LIG1        0.0470
     51 H          -4.4322   -0.1209    0.0567 H       1  LIG1        0.0506
     52 H          -0.6899   -3.8114    0.1985 H       1  LIG1        0.0252
     53 H          -1.9891   -4.3956   -0.8554 H       1  LIG1        0.0252
     54 H          -0.3059   -4.8508   -1.1749 H       1  LIG1        0.0252
     55 H          -1.0522   -2.2702   -3.8329 H       1  LIG1        0.0252
     56 H          -2.2104   -3.4639   -3.2441 H       1  LIG1        0.0252
     57 H          -0.5366   -3.9459   -3.5722 H       1  LIG1        0.0252
     58 H           0.8192   -1.4337   -2.3060 H       1  LIG1        0.0252
     59 H           0.9665   -2.0608   -0.6546 H       1  LIG1        0.0252
     60 H           1.3542   -3.0940   -2.0407 H       1  LIG1        0.0252
     61 H          -5.5052   -3.2503   -1.3683 H       1  LIG1        0.0432
     62 H          -3.9889   -3.3667   -2.2886 H       1  LIG1        0.0432
     63 H          -5.4044   -2.5676   -3.0064 H       1  LIG1        0.0432
     64 H         -15.4447   -6.3941    2.8355 H       1  LIG1        0.0442
     65 H         -13.9172   -5.4556    2.8773 H       1  LIG1        0.0442
     66 H         -15.4927   -4.6107    3.0171 H       1  LIG1        0.0442
     67 H          -7.9435   -3.8603    0.5137 H       1  LIG1        0.1529
     68 H          -1.8729   -1.6951   -0.2834 H       1  LIG1        0.1471
     69 H         -14.6877   -2.9693    1.1019 H       1  LIG1        0.1702
@<TRIPOS>BOND
     1     1     3   ar
     2     1     7   ar
     3     2     4   ar
     4     2     9   ar
     5     3    11   ar
     6     4    10   ar
     7     5     8   ar
     8     5    10   ar
     9     6     8   ar
    10     6    12   ar
    11     7    26   ar
    12     8     9   ar
    13     9    27   ar
    14    10    30    1
    15    11    13   ar
    16    11    29    1
    17    12    14    1
    18    12    27   ar
    19    13    26   ar
    20    13    31    1
    21    14    28   am
    22    14    32    2
    23    15    17    1
    24    15    19    1
    25    16    18    1
    26    16    19    1
    27    17    28    1
    28    18    28    1
    29    19    31    1
    30    20    25    1
    31    21    25    1
    32    22    25    1
    33    23    31    1
    34    24    35    1
    35    25    29    1
    36    30    35    1
    37    33    35    2
    38    34    35    2
    39     1    36    1
    40     2    37    1
    41     3    38    1
    42     4    39    1
    43     5    40    1
    44     6    41    1
    45     7    42    1
    46    15    43    1
    47    15    44    1
    48    16    45    1
    49    16    46    1
    50    17    47    1
    51    17    48    1
    52    18    49    1
    53    18    50    1
    54    19    51    1
    55    20    52    1
    56    20    53    1
    57    20    54    1
    58    21    55    1
    59    21    56    1
    60    21    57    1
    61    22    58    1
    62    22    59    1
    63    22    60    1
    64    23    61    1
    65    23    62    1
    66    23    63    1
    67    24    64    1
    68    24    65    1
    69    24    66    1
    70    27    67    1
    71    29    68    1
    72    30    69    1
