@<TRIPOS>MOLECULE
ChEBML52776
 50 53 0 0 0
SMALL
USER_CHARGES

@<TRIPOS>ATOM
      1 C          -2.3535    1.0080   -3.4825 C.ar    1  LIG1       -0.0418
      2 C         -10.3756   -5.1635    0.4823 C.ar    1  LIG1       -0.0376
      3 C          -1.7868   -0.1834   -3.0502 C.ar    1  LIG1       -0.0360
      4 C         -11.6919   -5.5151    0.6751 C.ar    1  LIG1       -0.0302
      5 C         -12.0817   -3.5137    1.9507 C.ar    1  LIG1       -0.0229
      6 C          -9.9776   -2.0270    2.1786 C.ar    1  LIG1       -0.0261
      7 C          -3.5267    1.4488   -2.9047 C.ar    1  LIG1        0.0292
      8 C         -10.7435   -3.1428    1.7626 C.ar    1  LIG1        0.0004
      9 C          -9.8853   -3.9773    1.0210 C.ar    1  LIG1        0.0380
     10 C          -2.4275   -0.8934   -2.0433 C.ar    1  LIG1        0.0670
     11 C         -12.5459   -4.6926    1.4079 C.ar    1  LIG1        0.0720
     12 C          -8.7150   -2.1909    1.7038 C.ar    1  LIG1        0.0947
     13 C          -3.6154   -0.3878   -1.5092 C.ar    1  LIG1        0.1412
     14 C          -7.5988   -1.2560    1.9097 C.2     1  LIG1        0.2599
     15 C          -4.4775   -0.1476    0.6043 C.3     1  LIG1        0.0288
     16 C          -5.5981   -1.4397   -1.0294 C.3     1  LIG1        0.0288
     17 C          -5.1796   -0.8617    1.7637 C.3     1  LIG1        0.0303
     18 C          -6.3741   -2.2392    0.0222 C.3     1  LIG1        0.0303
     19 C          -0.3481   -3.9944   -1.5292 C.3     1  LIG1       -0.0497
     20 C          -0.7244   -2.6882   -2.2315 C.3     1  LIG1        0.0056
     21 N          -4.1164    0.7548   -1.9485 N.ar    1  LIG1       -0.2394
     22 N          -8.6487   -3.3727    0.9921 N.ar    1  LIG1       -0.3101
     23 N          -4.2742   -1.0894   -0.5024 N.pl3   1  LIG1       -0.3112
     24 N          -6.4334   -1.4442    1.2593 N.am    1  LIG1       -0.2936
     25 N          -1.8945   -2.1003   -1.5747 N.pl3   1  LIG1       -0.3419
     26 O          -7.7272   -0.3127    2.6670 O.2     1  LIG1       -0.2701
     27 O         -13.8440   -5.0554    1.5886 O.3     1  LIG1       -0.3609
     28 H          -1.8805    1.5846   -4.2636 H       1  LIG1        0.0639
     29 H          -9.7226   -5.8082   -0.0872 H       1  LIG1        0.0643
     30 H          -0.8692   -0.5493   -3.4864 H       1  LIG1        0.0644
     31 H         -12.0666   -6.4367    0.2551 H       1  LIG1        0.0651
     32 H         -12.7460   -2.8791    2.5186 H       1  LIG1        0.0657
     33 H         -10.3331   -1.1947    2.7680 H       1  LIG1        0.0651
     34 H          -3.9690    2.3756   -3.2394 H       1  LIG1        0.0840
     35 H          -3.5123    0.2299    0.9416 H       1  LIG1        0.0485
     36 H          -5.0937    0.6847    0.2641 H       1  LIG1        0.0485
     37 H          -6.1458   -0.5285   -1.2699 H       1  LIG1        0.0485
     38 H          -5.4822   -2.0418   -1.9306 H       1  LIG1        0.0485
     39 H          -4.5371   -1.6525    2.1508 H       1  LIG1        0.0486
     40 H          -5.3999   -0.1463    2.5560 H       1  LIG1        0.0486
     41 H          -5.8639   -3.1826    0.2163 H       1  LIG1        0.0486
     42 H          -7.3843   -2.4348   -0.3373 H       1  LIG1        0.0486
     43 H          -1.1845   -4.6911   -1.5852 H       1  LIG1        0.0246
     44 H           0.5225   -4.4319   -2.0180 H       1  LIG1        0.0246
     45 H          -0.1141   -3.7909   -0.4843 H       1  LIG1        0.0246
     46 H           0.1121   -1.9916   -2.1755 H       1  LIG1        0.0463
     47 H          -0.9583   -2.8919   -3.2764 H       1  LIG1        0.0463
     48 H          -7.8601   -3.7208    0.5473 H       1  LIG1        0.1529
     49 H          -2.2999   -2.5470   -0.8151 H       1  LIG1        0.1466
     50 H         -14.3441   -4.6812    0.8505 H       1  LIG1        0.2182
@<TRIPOS>BOND
     1     1     3   ar
     2     1     7   ar
     3     2     4   ar
     4     2     9   ar
     5     3    10   ar
     6     4    11   ar
     7     5     8   ar
     8     5    11   ar
     9     6     8   ar
    10     6    12   ar
    11     7    21   ar
    12     8     9   ar
    13     9    22   ar
    14    10    13   ar
    15    10    25    1
    16    11    27    1
    17    12    14    1
    18    12    22   ar
    19    13    21   ar
    20    13    23    1
    21    14    24   am
    22    14    26    2
    23    15    17    1
    24    15    23    1
    25    16    18    1
    26    16    23    1
    27    17    24    1
    28    18    24    1
    29    19    20    1
    30    20    25    1
    31     1    28    1
    32     2    29    1
    33     3    30    1
    34     4    31    1
    35     5    32    1
    36     6    33    1
    37     7    34    1
    38    15    35    1
    39    15    36    1
    40    16    37    1
    41    16    38    1
    42    17    39    1
    43    17    40    1
    44    18    41    1
    45    18    42    1
    46    19    43    1
    47    19    44    1
    48    19    45    1
    49    20    46    1
    50    20    47    1
    51    22    48    1
    52    25    49    1
    53    27    50    1
