@<TRIPOS>MOLECULE
ChEBML1074832
 53 57 0 0 0
SMALL
USER_CHARGES

@<TRIPOS>ATOM
      1 C         -12.0734   -3.5332    1.7259 C.ar    1  LIG1       -0.0528
      2 C         -12.4321   -4.8112    1.2822 C.ar    1  LIG1       -0.0586
      3 C          -4.5668    0.5161    0.8638 C.ar    1  LIG1       -0.0368
      4 C          -4.1001   -0.1400   -0.2798 C.ar    1  LIG1       -0.0392
      5 C          -6.0218   -1.6330   -0.2912 C.ar    1  LIG1       -0.0296
      6 C         -10.0373   -1.9146    1.9222 C.ar    1  LIG1       -0.0293
      7 C         -10.1531   -5.2616    0.5697 C.ar    1  LIG1       -0.0372
      8 C         -10.7365   -3.1090    1.5916 C.ar    1  LIG1       -0.0023
      9 C          -6.5039   -0.9837    0.8576 C.ar    1  LIG1        0.0283
     10 C         -11.4850   -5.6605    0.7134 C.ar    1  LIG1       -0.0492
     11 C          -5.7733    0.0657    1.4040 C.ar    1  LIG1        0.0571
     12 C          -9.8090   -3.9813    1.0177 C.ar    1  LIG1        0.0380
     13 C          -4.8136   -1.1965   -0.8490 C.ar    1  LIG1        0.0268
     14 C          -7.6294   -1.1027    1.7009 C.ar    1  LIG1        0.1117
     15 C          -8.7234   -2.0817    1.5499 C.ar    1  LIG1        0.0593
     16 C           0.2943   -4.1998   -2.3681 C.3     1  LIG1       -0.0533
     17 C          -1.0282   -4.6254   -1.7380 C.3     1  LIG1       -0.0530
     18 C           0.5488   -2.7070   -2.1835 C.3     1  LIG1       -0.0530
     19 C          -2.1953   -3.7900   -2.2591 C.3     1  LIG1       -0.0490
     20 C          -0.6156   -1.8682   -2.7053 C.3     1  LIG1       -0.0490
     21 C          -1.9467   -2.2877   -2.0672 C.3     1  LIG1       -0.0259
     22 C         -11.8972   -7.0185    0.2491 C.3     1  LIG1       -0.0397
     23 C          -3.1022   -1.4718   -2.6437 C.3     1  LIG1        0.0112
     24 N          -7.6268   -0.2145    2.6975 N.ar    1  LIG1       -0.1816
     25 N          -8.5955   -3.3312    1.0052 N.ar    1  LIG1       -0.3126
     26 N          -6.4937    0.4777    2.4925 N.ar    1  LIG1       -0.2373
     27 N          -4.3167   -1.8285   -1.9912 N.pl3   1  LIG1       -0.3441
     28 H         -12.8218   -2.8813    2.1674 H       1  LIG1        0.0630
     29 H         -13.4650   -5.1350    1.3875 H       1  LIG1        0.0625
     30 H          -4.0139    1.3365    1.3076 H       1  LIG1        0.0644
     31 H          -3.1624    0.1876   -0.7243 H       1  LIG1        0.0643
     32 H          -6.5745   -2.4557   -0.7368 H       1  LIG1        0.0650
     33 H         -10.4578   -1.0305    2.3837 H       1  LIG1        0.0650
     34 H          -9.4101   -5.9179    0.1276 H       1  LIG1        0.0645
     35 H           1.1164   -4.7716   -1.9231 H       1  LIG1        0.0266
     36 H           0.2814   -4.4380   -3.4388 H       1  LIG1        0.0266
     37 H          -1.2111   -5.6855   -1.9472 H       1  LIG1        0.0267
     38 H          -0.9632   -4.5216   -0.6479 H       1  LIG1        0.0267
     39 H           0.7051   -2.4926   -1.1191 H       1  LIG1        0.0267
     40 H           1.4700   -2.4233   -2.7049 H       1  LIG1        0.0267
     41 H          -2.3493   -4.0100   -3.3234 H       1  LIG1        0.0270
     42 H          -3.1132   -4.0869   -1.7380 H       1  LIG1        0.0270
     43 H          -0.4188   -0.8094   -2.4987 H       1  LIG1        0.0270
     44 H          -0.6754   -1.9731   -3.7961 H       1  LIG1        0.0270
     45 H          -1.8934   -2.0816   -0.9898 H       1  LIG1        0.0319
     46 H         -12.2170   -6.9812   -0.7988 H       1  LIG1        0.0280
     47 H         -11.0713   -7.7353    0.3370 H       1  LIG1        0.0280
     48 H         -12.7250   -7.4099    0.8535 H       1  LIG1        0.0280
     49 H          -3.1857   -1.6875   -3.7006 H       1  LIG1        0.0468
     50 H          -2.9045   -0.4207   -2.4836 H       1  LIG1        0.0468
     51 H          -7.7363   -3.7236    0.6451 H       1  LIG1        0.1528
     52 H          -6.2672    1.2248    3.1369 H       1  LIG1        0.1755
     53 H          -4.8777   -2.5961   -2.3699 H       1  LIG1        0.1465
@<TRIPOS>BOND
     1     1     2   ar
     2     1     8   ar
     3     2    10   ar
     4     3     4   ar
     5     3    11   ar
     6     4    13   ar
     7     5     9   ar
     8     5    13   ar
     9     6     8   ar
    10     6    15   ar
    11     7    10   ar
    12     7    12   ar
    13     8    12   ar
    14     9    11   ar
    15     9    14   ar
    16    10    22    1
    17    11    26   ar
    18    12    25   ar
    19    13    27    1
    20    14    15    1
    21    14    24   ar
    22    15    25   ar
    23    16    17    1
    24    16    18    1
    25    17    19    1
    26    18    20    1
    27    19    21    1
    28    20    21    1
    29    21    23    1
    30    23    27    1
    31    24    26   ar
    32     1    28    1
    33     2    29    1
    34     3    30    1
    35     4    31    1
    36     5    32    1
    37     6    33    1
    38     7    34    1
    39    16    35    1
    40    16    36    1
    41    17    37    1
    42    17    38    1
    43    18    39    1
    44    18    40    1
    45    19    41    1
    46    19    42    1
    47    20    43    1
    48    20    44    1
    49    21    45    1
    50    22    46    1
    51    22    47    1
    52    22    48    1
    53    23    49    1
    54    23    50    1
    55    25    51    1
    56    26    52    1
    57    27    53    1
