@<TRIPOS>MOLECULE
ChEBML831591
 40 42 0 0 0
SMALL
USER_CHARGES

@<TRIPOS>ATOM
      1 C         -12.6065   -4.7405    1.2950 C.ar    1  LIG1       -0.0615
      2 C         -11.6511   -5.6237    0.7858 C.ar    1  LIG1       -0.0596
      3 C         -12.2386   -3.4769    1.7774 C.ar    1  LIG1       -0.0522
      4 C         -10.2969   -5.2793    0.7393 C.ar    1  LIG1       -0.0306
      5 C         -10.1283   -1.9667    2.1164 C.ar    1  LIG1       -0.0150
      6 C         -10.8822   -3.1095    1.7400 C.ar    1  LIG1        0.0081
      7 C          -9.9617   -4.0169    1.2256 C.ar    1  LIG1        0.0897
      8 C          -8.8171   -2.2491    1.8104 C.ar    1  LIG1        0.1550
      9 C          -7.5765   -1.4495    1.9724 C.2     1  LIG1        0.3169
     10 C          -2.4194    0.4523   -2.9265 C.3     1  LIG1       -0.0434
     11 C          -2.0811   -0.3598   -1.6809 C.3     1  LIG1       -0.0134
     12 C          -3.6949    1.2638   -2.7270 C.3     1  LIG1       -0.0134
     13 C          -3.2493   -1.2310   -1.2417 C.3     1  LIG1       -0.0343
     14 C          -4.8573    0.3871   -2.2838 C.3     1  LIG1       -0.0343
     15 C          -5.6239   -1.1577   -0.4824 C.3     1  LIG1       -0.0096
     16 C          -5.4238   -1.3647    1.0059 C.3     1  LIG1        0.0957
     17 N          -4.4699   -0.3658   -1.0331 N.4     1  LIG1        0.2477
     18 O          -7.5620   -0.3242    2.4466 O.2     1  LIG1       -0.2582
     19 O          -8.7054   -3.4904    1.2698 O.2     1  LIG1       -0.3034
     20 O          -6.4931   -2.1434    1.5262 O.3     1  LIG1       -0.3050
     21 H         -13.6522   -5.0366    1.3176 H       1  LIG1        0.0623
     22 H         -11.9658   -6.5975    0.4185 H       1  LIG1        0.0623
     23 H         -12.9923   -2.8010    2.1698 H       1  LIG1        0.0630
     24 H          -9.5510   -5.9589    0.3451 H       1  LIG1        0.0650
     25 H         -10.4999   -1.0521    2.5572 H       1  LIG1        0.0660
     26 H          -1.5873    1.1223   -3.1702 H       1  LIG1        0.0271
     27 H          -2.5467   -0.2248   -3.7800 H       1  LIG1        0.0271
     28 H          -1.2067   -0.9898   -1.8788 H       1  LIG1        0.0320
     29 H          -1.8046    0.3216   -0.8666 H       1  LIG1        0.0320
     30 H          -3.5166    2.0446   -1.9771 H       1  LIG1        0.0320
     31 H          -3.9561    1.7739   -3.6610 H       1  LIG1        0.0320
     32 H          -3.5007   -1.9868   -1.9943 H       1  LIG1        0.0814
     33 H          -3.0271   -1.7218   -0.2885 H       1  LIG1        0.0814
     34 H          -5.7325    0.9989   -2.0421 H       1  LIG1        0.0814
     35 H          -5.1253   -0.3515   -3.0476 H       1  LIG1        0.0814
     36 H          -6.5262   -0.5795   -0.7004 H       1  LIG1        0.0839
     37 H          -5.6400   -2.1069   -1.0242 H       1  LIG1        0.0839
     38 H          -4.4916   -1.9101    1.1832 H       1  LIG1        0.0629
     39 H          -5.3819   -0.4125    1.5448 H       1  LIG1        0.0629
     40 H          -4.2300    0.3336   -0.3169 H       1  LIG1        0.2004
@<TRIPOS>BOND
     1     1     2   ar
     2     1     3   ar
     3     2     4   ar
     4     3     6   ar
     5     4     7   ar
     6     5     6   ar
     7     5     8   ar
     8     6     7   ar
     9     7    19   ar
    10     8     9    1
    11     8    19   ar
    12     9    18    2
    13     9    20    1
    14    10    11    1
    15    10    12    1
    16    11    13    1
    17    12    14    1
    18    13    17    1
    19    14    17    1
    20    15    16    1
    21    15    17    1
    22    16    20    1
    23     1    21    1
    24     2    22    1
    25     3    23    1
    26     4    24    1
    27     5    25    1
    28    10    26    1
    29    10    27    1
    30    11    28    1
    31    11    29    1
    32    12    30    1
    33    12    31    1
    34    13    32    1
    35    13    33    1
    36    14    34    1
    37    14    35    1
    38    15    36    1
    39    15    37    1
    40    16    38    1
    41    16    39    1
    42    17    40    1
