@<TRIPOS>MOLECULE
ChEBML619722
 40 42 0 0 0
SMALL
USER_CHARGES

@<TRIPOS>ATOM
      1 CZ         -1.8973    0.9411   -2.7137 C.ar    1  PHE1        0.0000
      2 C         -12.7332   -5.2990    1.6787 C.ar    0  UNK0        0.0000
      3 C         -11.7268   -5.7880    0.8510 C.ar    0  UNK0        0.0000
      4 CE1        -3.1421    1.4985   -3.0055 C.ar    1  PHE1        0.0000
      5 CE2        -1.8184   -0.2519   -1.9952 C.ar    1  PHE1        0.0000
      6 C         -12.5786   -4.0659    2.3128 C.ar    0  UNK0        0.0000
      7 C         -10.5621   -5.0456    0.6541 C.ar    0  UNK0        0.0000
      8 C         -11.2405   -2.0622    2.7563 C.ar    0  UNK0        0.0000
      9 C         -10.0757   -1.3198    2.5595 C.ar    0  UNK0        0.0000
     10 CD1        -4.3082    0.8630   -2.5788 C.ar    1  PHE1        0.0000
     11 CD2        -2.9845   -0.8875   -1.5686 C.ar    1  PHE1        0.0000
     12 C          -9.2238   -3.0419    1.0977 C.ar    0  UNK0        0.0000
     13 C         -11.4129   -3.3053    2.1261 C.ar    0  UNK0        0.0000
     14 C         -10.3896   -3.8024    1.2843 C.ar    0  UNK0        0.0000
     15 C          -9.0693   -1.8087    1.7318 C.ar    0  UNK0        0.0000
     16 CG         -4.2294   -0.3300   -1.8603 C.ar    1  PHE1        0.0000
     17 C          -7.8546   -1.0353    1.5293 C.2     0  UNK0        0.0000
     18 C          -5.0112   -0.9059    1.1603 C.2     1  PHE1        0.0000
     19 CB         -5.4847   -1.0149   -1.4004 C.3     1  PHE1        0.0000
     20 CA         -5.9370   -0.5565   -0.0130 C.3     1  PHE1        0.0000
     21 N          -7.1691   -1.2320    0.3248 N.am    1  PHE1        0.0000
     22 O          -4.7130   -2.1322    1.2466 O.co2   1  PHE1       -0.5000
     23 O          -7.4490   -0.2548    2.4089 O.2     0  UNK0        0.0000
     24 OXT        -4.6524    0.0571    1.8939 O.co2   1  PHE1       -0.5000
     25 HZ         -0.9895    1.4355   -3.0471 H       1  PHE1        0.0000
     26 H         -13.6391   -5.8782    1.8327 H       0  UNK0        0.0000
     27 H         -11.8480   -6.7477    0.3572 H       0  UNK0        0.0000
     28 HE1        -3.2038    2.4268   -3.5659 H       1  PHE1        0.0000
     29 HE2        -0.8494   -0.6867   -1.7687 H       1  PHE1        0.0000
     30 H         -13.3776   -3.7041    2.9567 H       0  UNK0        0.0000
     31 H          -9.7894   -5.4469    0.0016 H       0  UNK0        0.0000
     32 H         -12.0146   -1.6606    3.4068 H       0  UNK0        0.0000
     33 H          -9.9663   -0.3604    3.0588 H       0  UNK0        0.0000
     34 HD1        -5.2738    1.3046   -2.8107 H       1  PHE1        0.0000
     35 HD2        -2.9133   -1.8166   -1.0092 H       1  PHE1        0.0000
     36 H          -8.4298   -3.4153    0.4528 H       0  UNK0        0.0000
     37 HB1        -6.2818   -0.8132   -2.1299 H       1  PHE1        0.0000
     38 HB2        -5.3489   -2.1046   -1.4220 H       1  PHE1        0.0000
     39 HA         -6.1366    0.5222   -0.0113 H       1  PHE1        0.0000
     40 H          -7.5094   -1.9273   -0.3316 H       1  PHE1        0.0000
@<TRIPOS>BOND
     1     1     4   ar
     2     1     5   ar
     3     2     3   ar
     4     2     6   ar
     5     3     7   ar
     6     4    10   ar
     7     5    11   ar
     8     6    13   ar
     9     7    14   ar
    10     8     9   ar
    11     8    13   ar
    12     9    15   ar
    13    10    16   ar
    14    11    16   ar
    15    12    14   ar
    16    12    15   ar
    17    13    14   ar
    18    15    17    1
    19    16    19    1
    20    17    21   am
    21    17    23    2
    22    18    20    1
    23    18    22   ar
    24    18    24   ar
    25    19    20    1
    26    20    21    1
    27     1    25    1
    28     2    26    1
    29     3    27    1
    30     4    28    1
    31     5    29    1
    32     6    30    1
    33     7    31    1
    34     8    32    1
    35     9    33    1
    36    10    34    1
    37    11    35    1
    38    12    36    1
    39    19    37    1
    40    19    38    1
    41    20    39    1
    42    21    40    1
