@<TRIPOS>MOLECULE
ChEBML1034228
 54 58 0 0 0
SMALL
USER_CHARGES

@<TRIPOS>ATOM
      1 C          -2.8431   -0.6526   -3.5760 C.ar    1  LIG1       -0.0573
      2 C          -2.5947    0.7134   -3.5399 C.ar    1  LIG1       -0.0437
      3 C         -10.1173   -1.2369    1.7284 C.ar    1  LIG1       -0.0474
      4 C         -11.2174   -1.9772    1.4462 C.ar    1  LIG1       -0.0344
      5 C          -3.4488   -1.2425   -2.4817 C.ar    1  LIG1       -0.0217
      6 C          -8.7390   -3.2179    1.7542 C.ar    1  LIG1       -0.0334
      7 C          -2.9567    1.4370   -2.4217 C.ar    1  LIG1        0.0290
      8 C          -8.8579   -1.8305    1.8918 C.ar    1  LIG1        0.0385
      9 C         -11.1349   -3.3850    1.3053 C.ar    1  LIG1        0.0799
     10 C          -9.8521   -3.9611    1.4750 C.ar    1  LIG1        0.0416
     11 C          -3.7869   -0.4520   -1.3876 C.ar    1  LIG1        0.1199
     12 C         -11.9328   -5.5459    0.9216 C.ar    1  LIG1        0.1606
     13 C          -7.6752   -1.0046    2.1980 C.2     1  LIG1        0.2457
     14 C         -15.3206   -7.9047    1.3555 C.3     1  LIG1       -0.0503
     15 C         -13.9376   -8.5088    1.6177 C.3     1  LIG1       -0.0373
     16 C         -15.2218   -6.9289    0.1790 C.3     1  LIG1       -0.0373
     17 C         -12.9304   -7.3799    1.8456 C.3     1  LIG1        0.0133
     18 C         -14.1477   -5.8824    0.4820 C.3     1  LIG1        0.0133
     19 C          -4.6287    0.0472    0.6858 C.3     1  LIG1        0.0288
     20 C          -5.7090   -1.5128   -0.7261 C.3     1  LIG1        0.0288
     21 C          -5.2797   -0.5264    1.9485 C.3     1  LIG1        0.0303
     22 C          -6.4300   -2.1939    0.4474 C.3     1  LIG1        0.0303
     23 N          -3.5384    0.8485   -1.3936 N.ar    1  LIG1       -0.2414
     24 N         -12.1304   -4.2498    1.0288 N.ar    1  LIG1       -0.2254
     25 N          -4.3962   -1.0317   -0.2810 N.pl3   1  LIG1       -0.3127
     26 N         -12.8467   -6.5398    0.6461 N.pl3   1  LIG1       -0.3101
     27 N          -6.5113   -1.2306    1.5570 N.am    1  LIG1       -0.2947
     28 O          -7.7487   -0.1230    3.0323 O.2     1  LIG1       -0.2716
     29 S         -10.1773   -5.6900    1.2249 S.2     1  LIG1       -0.0521
     30 H          -2.5690   -1.2409   -4.4392 H       1  LIG1        0.0624
     31 H          -2.1228    1.2044   -4.3781 H       1  LIG1        0.0639
     32 H         -10.2135   -0.1660    1.8299 H       1  LIG1        0.0631
     33 H         -12.1720   -1.4864    1.3272 H       1  LIG1        0.0646
     34 H          -3.6561   -2.3023   -2.4760 H       1  LIG1        0.0659
     35 H          -7.7784   -3.6972    1.8717 H       1  LIG1        0.0643
     36 H          -2.7651    2.4994   -2.3893 H       1  LIG1        0.0840
     37 H         -16.0259   -8.6995    1.1123 H       1  LIG1        0.0268
     38 H         -15.6606   -7.3722    2.2438 H       1  LIG1        0.0268
     39 H         -13.6304   -9.1025    0.7567 H       1  LIG1        0.0283
     40 H         -13.9793   -9.1438    2.5026 H       1  LIG1        0.0283
     41 H         -14.9535   -7.4748   -0.7254 H       1  LIG1        0.0283
     42 H         -16.1822   -6.4337    0.0349 H       1  LIG1        0.0283
     43 H         -11.9501   -7.8062    2.0586 H       1  LIG1        0.0469
     44 H         -13.2520   -6.7726    2.6917 H       1  LIG1        0.0469
     45 H         -14.4051   -5.3541    1.4000 H       1  LIG1        0.0469
     46 H         -14.0926   -5.1704   -0.3416 H       1  LIG1        0.0469
     47 H          -5.2885    0.7942    0.2445 H       1  LIG1        0.0485
     48 H          -3.6779    0.5120    0.9468 H       1  LIG1        0.0485
     49 H          -6.3029   -0.6705   -1.0812 H       1  LIG1        0.0485
     50 H          -5.5772   -2.2307   -1.5355 H       1  LIG1        0.0485
     51 H          -5.5228    0.2834    2.6366 H       1  LIG1        0.0486
     52 H          -4.5949   -1.2246    2.4299 H       1  LIG1        0.0486
     53 H          -5.8705   -3.0736    0.7653 H       1  LIG1        0.0486
     54 H          -7.4343   -2.4876    0.1420 H       1  LIG1        0.0486
@<TRIPOS>BOND
     1     1     2   ar
     2     1     5   ar
     3     2     7   ar
     4     3     4   ar
     5     3     8   ar
     6     4     9   ar
     7     5    11   ar
     8     6     8   ar
     9     6    10   ar
    10     7    23   ar
    11     8    13    1
    12     9    10   ar
    13     9    24   ar
    14    10    29   ar
    15    11    23   ar
    16    11    25    1
    17    12    24   ar
    18    12    26    1
    19    12    29   ar
    20    13    27   am
    21    13    28    2
    22    14    15    1
    23    14    16    1
    24    15    17    1
    25    16    18    1
    26    17    26    1
    27    18    26    1
    28    19    21    1
    29    19    25    1
    30    20    22    1
    31    20    25    1
    32    21    27    1
    33    22    27    1
    34     1    30    1
    35     2    31    1
    36     3    32    1
    37     4    33    1
    38     5    34    1
    39     6    35    1
    40     7    36    1
    41    14    37    1
    42    14    38    1
    43    15    39    1
    44    15    40    1
    45    16    41    1
    46    16    42    1
    47    17    43    1
    48    17    44    1
    49    18    45    1
    50    18    46    1
    51    19    47    1
    52    19    48    1
    53    20    49    1
    54    20    50    1
    55    21    51    1
    56    21    52    1
    57    22    53    1
    58    22    54    1
