@<TRIPOS>MOLECULE
ChEBML2011
 48 51 0 0 0
SMALL
USER_CHARGES

@<TRIPOS>ATOM
      1 C          -3.1816   -1.0800   -2.3904 C.ar    1  LIG1       -0.0615
      2 C          -2.4554   -0.6348   -1.2876 C.ar    1  LIG1       -0.0603
      3 C          -4.5448   -1.3764   -2.2781 C.ar    1  LIG1       -0.0530
      4 C          -3.0658   -0.4717   -0.0406 C.ar    1  LIG1       -0.0402
      5 C         -10.2182   -5.2435    0.5955 C.ar    1  LIG1       -0.0376
      6 C         -11.5500   -5.6439    0.7366 C.ar    1  LIG1       -0.0299
      7 C         -12.1410   -3.5203    1.7554 C.ar    1  LIG1       -0.0226
      8 C          -6.5111   -1.4206   -0.5648 C.ar    1  LIG1       -0.0276
      9 C         -10.1064   -1.9008    1.9588 C.ar    1  LIG1       -0.0275
     10 C          -5.1819   -1.2197   -1.0311 C.ar    1  LIG1       -0.0022
     11 C         -10.8043   -3.0948    1.6237 C.ar    1  LIG1        0.0003
     12 C          -4.4293   -0.7719    0.0566 C.ar    1  LIG1        0.0378
     13 C          -9.8755   -3.9644    1.0480 C.ar    1  LIG1        0.0379
     14 C         -12.4982   -4.7972    1.3073 C.ar    1  LIG1        0.0757
     15 C          -6.5392   -1.0972    0.7722 C.ar    1  LIG1        0.0811
     16 C          -8.7919   -2.0658    1.5872 C.ar    1  LIG1        0.0811
     17 C          -7.7100   -1.1424    1.7216 C.2     1  LIG1        0.2206
     18 C         -16.0565   -4.5017   -0.2438 C.3     1  LIG1       -0.0504
     19 C         -15.7604   -5.9154    0.2522 C.3     1  LIG1       -0.0290
     20 C         -17.5535   -4.2995   -0.4882 C.3     1  LIG1       -0.0442
     21 C         -14.2688   -6.1382    0.4570 C.3     1  LIG1        0.0533
     22 C         -17.8403   -2.8968   -1.0222 C.3     1  LIG1       -0.0005
     23 N          -5.2789   -0.7068    1.1378 N.ar    1  LIG1       -0.3112
     24 N          -8.6625   -3.3134    1.0386 N.ar    1  LIG1       -0.3112
     25 O          -7.6798   -0.3070    2.6552 O.2     1  LIG1       -0.2856
     26 O         -13.7967   -5.2186    1.4320 O.3     1  LIG1       -0.3460
     27 I         -19.9308   -2.6415   -1.3895 I       1  LIG1       -0.0863
     28 H          -2.6849   -1.1982   -3.3499 H       1  LIG1        0.0623
     29 H          -1.3976   -0.4107   -1.3973 H       1  LIG1        0.0623
     30 H          -5.0992   -1.7222   -3.1462 H       1  LIG1        0.0629
     31 H          -2.5003   -0.1254    0.8179 H       1  LIG1        0.0642
     32 H          -9.4808   -5.9032    0.1508 H       1  LIG1        0.0643
     33 H         -11.8427   -6.6334    0.3929 H       1  LIG1        0.0651
     34 H         -12.8865   -2.8657    2.1988 H       1  LIG1        0.0657
     35 H          -7.3541   -1.7652   -1.1490 H       1  LIG1        0.0651
     36 H         -10.5252   -1.0175    2.4226 H       1  LIG1        0.0651
     37 H         -15.5042   -4.3153   -1.1729 H       1  LIG1        0.0268
     38 H         -15.7031   -3.7723    0.4951 H       1  LIG1        0.0268
     39 H         -16.2888   -6.1058    1.1948 H       1  LIG1        0.0290
     40 H         -16.1436   -6.6564   -0.4609 H       1  LIG1        0.0290
     41 H         -18.1002   -4.4632    0.4490 H       1  LIG1        0.0274
     42 H         -17.9102   -5.0528   -1.2019 H       1  LIG1        0.0274
     43 H         -14.0706   -7.1544    0.8122 H       1  LIG1        0.0572
     44 H         -13.7174   -5.9722   -0.4740 H       1  LIG1        0.0572
     45 H         -17.5044   -2.1440   -0.3004 H       1  LIG1        0.0377
     46 H         -17.2855   -2.7280   -1.9519 H       1  LIG1        0.0377
     47 H          -5.0077   -0.4136    2.0664 H       1  LIG1        0.1529
     48 H          -7.8027   -3.7035    0.6777 H       1  LIG1        0.1529
@<TRIPOS>BOND
     1     1     2   ar
     2     1     3   ar
     3     2     4   ar
     4     3    10   ar
     5     4    12   ar
     6     5     6   ar
     7     5    13   ar
     8     6    14   ar
     9     7    11   ar
    10     7    14   ar
    11     8    10   ar
    12     8    15   ar
    13     9    11   ar
    14     9    16   ar
    15    10    12   ar
    16    11    13   ar
    17    12    23   ar
    18    13    24   ar
    19    14    26    1
    20    15    17    1
    21    15    23   ar
    22    16    17    1
    23    16    24   ar
    24    17    25    2
    25    18    19    1
    26    18    20    1
    27    19    21    1
    28    20    22    1
    29    21    26    1
    30    22    27    1
    31     1    28    1
    32     2    29    1
    33     3    30    1
    34     4    31    1
    35     5    32    1
    36     6    33    1
    37     7    34    1
    38     8    35    1
    39     9    36    1
    40    18    37    1
    41    18    38    1
    42    19    39    1
    43    19    40    1
    44    20    41    1
    45    20    42    1
    46    21    43    1
    47    21    44    1
    48    22    45    1
    49    22    46    1
    50    23    47    1
    51    24    48    1
