@<TRIPOS>MOLECULE
ChEBML944538
 42 45 0 0 0
SMALL
USER_CHARGES

@<TRIPOS>ATOM
      1 C         -12.0102   -5.5114    1.6358 C.ar    1  LIG1       -0.0619
      2 C         -11.0527   -5.8278    0.6755 C.ar    1  LIG1       -0.0619
      3 C          -4.1979    0.9953   -2.3137 C.ar    1  LIG1       -0.0520
      4 C          -2.8675   -0.9202   -1.6831 C.ar    1  LIG1       -0.0520
      5 C         -11.9799   -4.2688    2.2678 C.ar    1  LIG1       -0.0586
      6 C         -10.0596   -4.9043    0.3499 C.ar    1  LIG1       -0.0572
      7 C          -3.2087    1.3852   -3.2165 C.ar    1  LIG1       -0.0586
      8 C          -1.8782   -0.5304   -2.5858 C.ar    1  LIG1       -0.0586
      9 C          -5.9771    0.1063    0.1328 C.ar    1  LIG1        0.0052
     10 C          -4.0273   -0.1574   -1.5469 C.ar    1  LIG1        0.0076
     11 C         -10.9944   -3.3286    1.9378 C.ar    1  LIG1       -0.0416
     12 C         -10.0149   -3.6533    0.9821 C.ar    1  LIG1       -0.0273
     13 C          -2.0489    0.6223   -3.3526 C.ar    1  LIG1       -0.0511
     14 C          -5.0443   -0.5582   -0.6187 C.ar    1  LIG1        0.1172
     15 C          -6.6451   -0.9210    0.8212 C.ar    1  LIG1        0.1562
     16 C          -7.7301   -0.7927    1.7596 C.2     1  LIG1        0.2669
     17 C         -10.9578   -1.9999    2.6469 C.3     1  LIG1       -0.0116
     18 C          -8.9241   -2.6792    0.6050 C.3     1  LIG1        0.0398
     19 C         -10.2294   -0.9499    1.8170 C.3     1  LIG1        0.0189
     20 C          -0.9911    1.0395   -4.3175 C.3     1  LIG1       -0.0398
     21 N          -6.1637   -2.1302    0.5198 N.ar    1  LIG1       -0.1232
     22 N          -8.9173   -1.4470    1.4086 N.am    1  LIG1       -0.2917
     23 O          -7.5699   -0.1330    2.7826 O.2     1  LIG1       -0.2697
     24 O          -5.1458   -1.8937   -0.3964 O.2     1  LIG1       -0.2125
     25 H         -12.7805   -6.2325    1.8931 H       1  LIG1        0.0623
     26 H         -11.0774   -6.7949    0.1818 H       1  LIG1        0.0623
     27 H          -5.0963    1.6007   -2.2190 H       1  LIG1        0.0630
     28 H          -2.7199   -1.8215   -1.0927 H       1  LIG1        0.0630
     29 H         -12.7311   -4.0362    3.0185 H       1  LIG1        0.0625
     30 H          -9.3164   -5.1660   -0.3993 H       1  LIG1        0.0626
     31 H          -3.3498    2.2849   -3.8096 H       1  LIG1        0.0625
     32 H          -0.9779   -1.1310   -2.6851 H       1  LIG1        0.0625
     33 H          -6.1480    1.1725    0.1763 H       1  LIG1        0.0677
     34 H         -11.9762   -1.6494    2.8508 H       1  LIG1        0.0332
     35 H         -10.4470   -2.1378    3.6078 H       1  LIG1        0.0332
     36 H          -7.9561   -3.1828    0.6914 H       1  LIG1        0.0520
     37 H          -9.0621   -2.3713   -0.4385 H       1  LIG1        0.0520
     38 H         -10.7879   -0.7150    0.9022 H       1  LIG1        0.0473
     39 H         -10.1368   -0.0222    2.3905 H       1  LIG1        0.0473
     40 H          -0.2676    1.7029   -3.8280 H       1  LIG1        0.0280
     41 H          -0.4515    0.1711   -4.7175 H       1  LIG1        0.0280
     42 H          -1.4223    1.5688   -5.1773 H       1  LIG1        0.0280
@<TRIPOS>BOND
     1     1     2   ar
     2     1     5   ar
     3     2     6   ar
     4     3     7   ar
     5     3    10   ar
     6     4     8   ar
     7     4    10   ar
     8     5    11   ar
     9     6    12   ar
    10     7    13   ar
    11     8    13   ar
    12     9    14   ar
    13     9    15   ar
    14    10    14    1
    15    11    12   ar
    16    11    17    1
    17    12    18    1
    18    13    20    1
    19    14    24   ar
    20    15    16    1
    21    15    21   ar
    22    16    22   am
    23    16    23    2
    24    17    19    1
    25    18    22    1
    26    19    22    1
    27    21    24   ar
    28     1    25    1
    29     2    26    1
    30     3    27    1
    31     4    28    1
    32     5    29    1
    33     6    30    1
    34     7    31    1
    35     8    32    1
    36     9    33    1
    37    17    34    1
    38    17    35    1
    39    18    36    1
    40    18    37    1
    41    19    38    1
    42    19    39    1
    43    20    40    1
    44    20    41    1
    45    20    42    1
