@<TRIPOS>MOLECULE
ChEBML336369
 43 45 0 0 0
SMALL
USER_CHARGES

@<TRIPOS>ATOM
      1 C          -2.3966    1.3094   -3.6647 C.ar    1  LIG1        0.0000
      2 C          -1.4517    0.3004   -3.6944 C.ar    1  LIG1        0.0000
      3 C          -3.4460    1.2511   -2.7661 C.ar    1  LIG1        0.0000
      4 C          -9.8729   -1.7415    2.0070 C.ar    1  LIG1        0.0000
      5 C          -8.3398   -3.3879    1.1279 C.ar    1  LIG1        0.0000
      6 C          -6.2253   -2.0281   -0.1655 C.ar    1  LIG1        0.0000
      7 C          -5.0006   -0.8488    1.5569 C.ar    1  LIG1        0.0000
      8 C         -10.9121   -2.6338    1.8455 C.ar    1  LIG1        0.0000
      9 C          -9.3876   -4.2719    0.9763 C.ar    1  LIG1        0.0000
     10 C          -1.5535   -0.7687   -2.8255 C.ar    1  LIG1        0.0000
     11 C          -3.5556    0.1814   -1.8990 C.ar    1  LIG1        0.0000
     12 C          -5.0565   -2.2021   -0.8711 C.ar    1  LIG1        0.0000
     13 C          -3.8353   -1.0331    0.8480 C.ar    1  LIG1        0.0000
     14 C          -8.5753   -2.1134    1.6482 C.ar    1  LIG1        0.0000
     15 C          -6.2069   -1.3513    1.0583 C.ar    1  LIG1        0.0000
     16 C         -10.6716   -3.8950    1.3289 C.ar    1  LIG1        0.0000
     17 C          -2.6055   -0.8296   -1.9227 C.ar    1  LIG1        0.0000
     18 C          -3.8582   -1.7063   -0.3687 C.ar    1  LIG1        0.0000
     19 C          -7.4569   -1.1626    1.8179 C.2     1  LIG1        0.0000
     20 C         -13.1185   -6.6604    2.2589 C.2     1  LIG1        0.0000
     21 C         -11.8122   -4.8644    1.1555 C.3     1  LIG1        0.0000
     22 C         -11.9778   -5.6908    2.4323 C.3     1  LIG1        0.0000
     23 O         -13.4152   -7.4208    3.1645 O.co2   1  LIG1       -0.5000
     24 O          -7.5672   -0.2247    2.5837 O.2     1  LIG1        0.0000
     25 O         -13.7412   -6.6877    1.2110 O.co2   1  LIG1       -0.5000
     26 O          -2.7083   -1.8803   -1.0672 O.3     1  LIG1        0.0000
     27 H          -2.3149    2.1447   -4.3444 H       1  LIG1        0.0000
     28 H          -0.6331    0.3483   -4.3972 H       1  LIG1        0.0000
     29 H          -4.1825    2.0407   -2.7448 H       1  LIG1        0.0000
     30 H         -10.0620   -0.7573    2.4096 H       1  LIG1        0.0000
     31 H          -7.3388   -3.6820    0.8485 H       1  LIG1        0.0000
     32 H          -7.1554   -2.4141   -0.5560 H       1  LIG1        0.0000
     33 H          -4.9827   -0.3216    2.4994 H       1  LIG1        0.0000
     34 H         -11.9160   -2.3476    2.1225 H       1  LIG1        0.0000
     35 H          -9.2062   -5.2592    0.5780 H       1  LIG1        0.0000
     36 H          -0.8149   -1.5561   -2.8486 H       1  LIG1        0.0000
     37 H          -4.3779    0.1341   -1.2003 H       1  LIG1        0.0000
     38 H          -5.0698   -2.7247   -1.8162 H       1  LIG1        0.0000
     39 H          -2.9025   -0.6499    1.2348 H       1  LIG1        0.0000
     40 H         -11.6003   -5.5287    0.3176 H       1  LIG1        0.0000
     41 H         -12.7313   -4.3125    0.9581 H       1  LIG1        0.0000
     42 H         -12.1898   -5.0267    3.2701 H       1  LIG1        0.0000
     43 H         -11.0588   -6.2427    2.6296 H       1  LIG1        0.0000
@<TRIPOS>BOND
     1     1     2   ar
     2     1     3   ar
     3     2    10   ar
     4     3    11   ar
     5     4     8   ar
     6     4    14   ar
     7     5     9   ar
     8     5    14   ar
     9     6    12   ar
    10     6    15   ar
    11     7    13   ar
    12     7    15   ar
    13     8    16   ar
    14     9    16   ar
    15    10    17   ar
    16    11    17   ar
    17    12    18   ar
    18    13    18   ar
    19    14    19    1
    20    15    19    1
    21    16    21    1
    22    17    26    1
    23    18    26    1
    24    19    24    2
    25    20    22    1
    26    20    23   ar
    27    20    25   ar
    28    21    22    1
    29     1    27    1
    30     2    28    1
    31     3    29    1
    32     4    30    1
    33     5    31    1
    34     6    32    1
    35     7    33    1
    36     8    34    1
    37     9    35    1
    38    10    36    1
    39    11    37    1
    40    12    38    1
    41    13    39    1
    42    21    40    1
    43    21    41    1
    44    22    42    1
    45    22    43    1
