@<TRIPOS>MOLECULE
ChEBML436379
 40 43 0 0 0
SMALL
USER_CHARGES

@<TRIPOS>ATOM
      1 C          -1.6973    0.5458   -4.3101 C.ar    1  LIG1       -0.0622
      2 C         -12.6729   -4.8239    1.9611 C.ar    1  LIG1       -0.0616
      3 C          -2.6457    1.4914   -3.9207 C.ar    1  LIG1       -0.0616
      4 C          -1.3746   -0.5102   -3.4579 C.ar    1  LIG1       -0.0616
      5 C         -12.0745   -5.5324    0.9289 C.ar    1  LIG1       -0.0611
      6 C         -12.0348   -3.7113    2.5157 C.ar    1  LIG1       -0.0538
      7 C          -3.2715    1.3812   -2.6789 C.ar    1  LIG1       -0.0544
      8 C          -2.0003   -0.6206   -2.2161 C.ar    1  LIG1       -0.0544
      9 C          -3.0382    0.8257    0.5811 C.ar    1  LIG1       -0.0516
     10 C          -3.6638    0.7160    1.8229 C.ar    1  LIG1       -0.0295
     11 C         -10.8293   -5.1462    0.4293 C.ar    1  LIG1       -0.0476
     12 C          -9.9319   -2.2014    2.4325 C.ar    1  LIG1       -0.0345
     13 C          -4.7840   -0.5135   -0.4168 C.ar    1  LIG1       -0.0302
     14 C         -10.7714   -3.2943    2.0312 C.ar    1  LIG1       -0.0103
     15 C          -2.9488    0.3251   -1.8266 C.ar    1  LIG1       -0.0183
     16 C          -3.5983    0.2110   -0.5389 C.ar    1  LIG1       -0.0163
     17 C          -5.4096   -0.6234    0.8250 C.ar    1  LIG1        0.0638
     18 C          -4.8494   -0.0086    1.9449 C.ar    1  LIG1        0.0927
     19 C         -10.1887   -4.0242    0.9906 C.ar    1  LIG1        0.0197
     20 C          -8.7656   -2.1287    1.7085 C.ar    1  LIG1        0.0757
     21 C          -7.7006   -1.1864    1.8238 C.2     1  LIG1        0.2541
     22 N          -6.6144   -1.3625    0.9334 N.am    1  LIG1       -0.2786
     23 O          -7.6938   -0.2710    2.6803 O.2     1  LIG1       -0.2709
     24 O          -5.4453   -0.1025    3.1671 O.3     1  LIG1       -0.3589
     25 S          -8.6600   -3.3656    0.5406 S.2     1  LIG1       -0.0839
     26 H          -1.2114    0.6309   -5.2777 H       1  LIG1        0.0622
     27 H         -13.6416   -5.1345    2.3418 H       1  LIG1        0.0623
     28 H          -2.8983    2.3129   -4.5848 H       1  LIG1        0.0623
     29 H          -0.6372   -1.2478   -3.7611 H       1  LIG1        0.0623
     30 H         -12.5783   -6.3963    0.5041 H       1  LIG1        0.0623
     31 H         -12.5157   -3.1658    3.3237 H       1  LIG1        0.0629
     32 H          -4.0090    2.1264   -2.3899 H       1  LIG1        0.0629
     33 H          -1.7391   -1.4496   -1.5627 H       1  LIG1        0.0629
     34 H          -2.1146    1.3942    0.5019 H       1  LIG1        0.0630
     35 H          -3.2223    1.1979    2.6910 H       1  LIG1        0.0651
     36 H         -10.3684   -5.7065   -0.3792 H       1  LIG1        0.0635
     37 H         -10.1844   -1.5033    3.2218 H       1  LIG1        0.0643
     38 H          -5.2239   -0.9942   -1.2888 H       1  LIG1        0.0650
     39 H          -6.7127   -2.1318    0.2755 H       1  LIG1        0.1561
     40 H          -4.9274    0.3807    3.8296 H       1  LIG1        0.2183
@<TRIPOS>BOND
     1     1     3   ar
     2     1     4   ar
     3     2     5   ar
     4     2     6   ar
     5     3     7   ar
     6     4     8   ar
     7     5    11   ar
     8     6    14   ar
     9     7    15   ar
    10     8    15   ar
    11     9    10   ar
    12     9    16   ar
    13    10    18   ar
    14    11    19   ar
    15    12    14   ar
    16    12    20   ar
    17    13    16   ar
    18    13    17   ar
    19    14    19   ar
    20    15    16    1
    21    17    18   ar
    22    17    22    1
    23    18    24    1
    24    19    25   ar
    25    20    21    1
    26    20    25   ar
    27    21    22   am
    28    21    23    2
    29     1    26    1
    30     2    27    1
    31     3    28    1
    32     4    29    1
    33     5    30    1
    34     6    31    1
    35     7    32    1
    36     8    33    1
    37     9    34    1
    38    10    35    1
    39    11    36    1
    40    12    37    1
    41    13    38    1
    42    22    39    1
    43    24    40    1
