@<TRIPOS>MOLECULE
ChEBML209120
 48 51 0 0 0
SMALL
USER_CHARGES

@<TRIPOS>ATOM
      1 C         -12.3506   -3.7216    0.7336 C.ar    1  LIG1       -0.0600
      2 C         -11.7198   -4.9341    0.4934 C.ar    1  LIG1       -0.0602
      3 C          -2.4504    1.3741   -3.5667 C.ar    1  LIG1       -0.0419
      4 C         -11.6462   -2.6516    1.2078 C.ar    1  LIG1       -0.0344
      5 C         -10.3693   -5.0780    0.7297 C.ar    1  LIG1       -0.0385
      6 C          -1.6490    0.4069   -2.9753 C.ar    1  LIG1       -0.0362
      7 C          -3.7210    1.5938   -3.0734 C.ar    1  LIG1        0.0292
      8 C         -10.2762   -2.7740    1.4548 C.ar    1  LIG1        0.0864
      9 C          -9.6370   -4.0014    1.2113 C.ar    1  LIG1        0.0575
     10 C          -2.1569   -0.3070   -1.9047 C.ar    1  LIG1        0.0760
     11 C          -3.4481   -0.0372   -1.4633 C.ar    1  LIG1        0.1413
     12 C          -8.1784   -2.5266    1.9670 C.ar    1  LIG1        0.1434
     13 C          -4.3975    0.2378    0.6061 C.3     1  LIG1        0.0523
     14 C          -5.1874   -1.4143   -0.8821 C.3     1  LIG1        0.0523
     15 C          -5.0687   -0.4737    1.7821 C.3     1  LIG1       -0.0176
     16 C          -5.8712   -2.1522    0.2701 C.3     1  LIG1       -0.0176
     17 C          -0.9086   -0.8623    0.5417 C.3     1  LIG1        0.0100
     18 C          -6.8889   -1.8975    2.4281 C.3     1  LIG1        0.0233
     19 N          -4.1794    0.8979   -2.0503 N.ar    1  LIG1       -0.2395
     20 N          -9.3274   -1.9184    1.9145 N.ar    1  LIG1       -0.2303
     21 N          -8.3095   -3.8113    1.5393 N.ar    1  LIG1       -0.2969
     22 N          -3.9731   -0.7509   -0.3923 N.pl3   1  LIG1       -0.3039
     23 N          -6.2624   -1.1862    1.3059 N.4     1  LIG1        0.2537
     24 O           0.0096   -1.5479   -1.8864 O.2     1  LIG1       -0.4943
     25 O          -2.0629   -2.6625   -1.0820 O.2     1  LIG1       -0.4943
     26 S          -1.1842   -1.5462   -1.1156 S.O2    1  LIG1       -0.2313
     27 H         -13.4092   -3.6230    0.5440 H       1  LIG1        0.0623
     28 H         -12.2909   -5.7708    0.1191 H       1  LIG1        0.0623
     29 H          -2.0835    1.9490   -4.4042 H       1  LIG1        0.0639
     30 H         -12.1472   -1.7127    1.3920 H       1  LIG1        0.0646
     31 H          -9.8832   -6.0237    0.5407 H       1  LIG1        0.0643
     32 H          -0.6513    0.2164   -3.3425 H       1  LIG1        0.0643
     33 H          -4.3478    2.3452   -3.5305 H       1  LIG1        0.0840
     34 H          -3.5274    0.7884    0.9640 H       1  LIG1        0.0524
     35 H          -5.1037    0.9324    0.1513 H       1  LIG1        0.0524
     36 H          -5.8689   -0.6680   -1.2903 H       1  LIG1        0.0524
     37 H          -4.9215   -2.1273   -1.6625 H       1  LIG1        0.0524
     38 H          -4.3712   -1.1866    2.2217 H       1  LIG1        0.0831
     39 H          -5.3595    0.2608    2.5331 H       1  LIG1        0.0831
     40 H          -5.1815   -2.8813    0.6949 H       1  LIG1        0.0831
     41 H          -6.7582   -2.6647   -0.1022 H       1  LIG1        0.0831
     42 H          -0.6461    0.1926    0.4604 H       1  LIG1        0.0429
     43 H          -1.8182   -0.9658    1.1333 H       1  LIG1        0.0429
     44 H          -0.0959   -1.4026    1.0273 H       1  LIG1        0.0429
     45 H          -6.2141   -2.6742    2.7882 H       1  LIG1        0.0899
     46 H          -7.0959   -1.1937    3.2343 H       1  LIG1        0.0899
     47 H          -7.6019   -4.4720    1.4784 H       1  LIG1        0.1542
     48 H          -6.9176   -0.5239    0.9185 H       1  LIG1        0.2009
@<TRIPOS>BOND
     1     1     2   ar
     2     1     4   ar
     3     2     5   ar
     4     3     6   ar
     5     3     7   ar
     6     4     8   ar
     7     5     9   ar
     8     6    10   ar
     9     7    19   ar
    10     8     9   ar
    11     8    20   ar
    12     9    21   ar
    13    10    11   ar
    14    10    26    1
    15    11    19   ar
    16    11    22    1
    17    12    18    1
    18    12    20   ar
    19    12    21   ar
    20    13    15    1
    21    13    22    1
    22    14    16    1
    23    14    22    1
    24    15    23    1
    25    16    23    1
    26    17    26    1
    27    18    23    1
    28    24    26    2
    29    25    26    2
    30     1    27    1
    31     2    28    1
    32     3    29    1
    33     4    30    1
    34     5    31    1
    35     6    32    1
    36     7    33    1
    37    13    34    1
    38    13    35    1
    39    14    36    1
    40    14    37    1
    41    15    38    1
    42    15    39    1
    43    16    40    1
    44    16    41    1
    45    17    42    1
    46    17    43    1
    47    17    44    1
    48    18    45    1
    49    18    46    1
    50    21    47    1
    51    23    48    1
