@<TRIPOS>MOLECULE
ChEBML863409
 47 50 0 0 0
SMALL
USER_CHARGES

@<TRIPOS>ATOM
      1 C          -2.3831    0.8212   -3.6022 C.ar    1  LIG1       -0.0589
      2 C          -1.7026   -0.1429   -2.8817 C.ar    1  LIG1       -0.0572
      3 C          -4.2575    0.6138   -2.1266 C.ar    1  LIG1       -0.0377
      4 C          -9.9758   -2.0816    2.1000 C.ar    1  LIG1       -0.0057
      5 C          -3.6602    1.1966   -3.2268 C.ar    1  LIG1       -0.0492
      6 C          -2.2964   -0.7340   -1.7836 C.ar    1  LIG1       -0.0298
      7 C          -3.5786   -0.3590   -1.4034 C.ar    1  LIG1        0.0319
      8 C         -10.6411   -3.1833    1.5856 C.ar    1  LIG1        0.0582
      9 C          -8.6425   -2.1646    1.6873 C.ar    1  LIG1        0.1463
     10 C         -11.9790   -3.6192    1.6725 C.ar    1  LIG1       -0.0385
     11 C         -12.3448   -4.7698    1.0464 C.ar    1  LIG1       -0.0590
     12 C         -11.3867   -5.5027    0.3257 C.ar    1  LIG1       -0.0459
     13 C         -10.1102   -5.0726    0.2521 C.ar    1  LIG1        0.0202
     14 C          -7.5773   -1.1922    2.0115 C.2     1  LIG1        0.2659
     15 C          -4.5906    0.1351    0.5998 C.3     1  LIG1        0.0274
     16 C          -5.4039   -1.6072   -0.7775 C.3     1  LIG1        0.0274
     17 C          -5.2422   -0.4490    1.8574 C.3     1  LIG1        0.0303
     18 C          -6.1091   -2.3063    0.3891 C.3     1  LIG1        0.0303
     19 C          -4.3982    2.2475   -4.0154 C.3     1  LIG1       -0.0397
     20 C          -1.5541   -1.7851   -0.9992 C.3     1  LIG1       -0.0379
     21 N          -8.4943   -3.2569    0.9525 N.ar    1  LIG1       -0.1715
     22 N          -9.7261   -3.9190    0.8747 N.ar    1  LIG1       -0.2005
     23 N          -4.1820   -0.9548   -0.2936 N.pl3   1  LIG1       -0.3274
     24 N          -6.3610   -1.3107    1.4434 N.am    1  LIG1       -0.2933
     25 O          -7.7985   -0.2858    2.7907 O.2     1  LIG1       -0.2698
     26 H          -1.9166    1.2818   -4.4604 H       1  LIG1        0.0625
     27 H          -0.7057   -0.4343   -3.1780 H       1  LIG1        0.0626
     28 H          -5.2531    0.9105   -1.8313 H       1  LIG1        0.0645
     29 H         -10.4082   -1.3016    2.7091 H       1  LIG1        0.0669
     30 H         -12.7050   -3.0462    2.2302 H       1  LIG1        0.0643
     31 H         -13.3654   -5.1182    1.1031 H       1  LIG1        0.0624
     32 H         -11.6742   -6.4167   -0.1726 H       1  LIG1        0.0637
     33 H          -9.3842   -5.6465   -0.3048 H       1  LIG1        0.0813
     34 H          -3.7156    0.7202    0.8827 H       1  LIG1        0.0485
     35 H          -5.3056    0.7774    0.0855 H       1  LIG1        0.0485
     36 H          -6.0692   -0.8586   -1.2077 H       1  LIG1        0.0485
     37 H          -5.1453   -2.3431   -1.5389 H       1  LIG1        0.0485
     38 H          -4.5103   -1.0380    2.4102 H       1  LIG1        0.0486
     39 H          -5.6147    0.3591    2.4870 H       1  LIG1        0.0486
     40 H          -5.4733   -3.1011    0.7794 H       1  LIG1        0.0486
     41 H          -7.0550   -2.7266    0.0476 H       1  LIG1        0.0486
     42 H          -4.1793    3.2322   -3.6026 H       1  LIG1        0.0280
     43 H          -4.0790    2.2110   -5.0570 H       1  LIG1        0.0280
     44 H          -5.4703    2.0593   -3.9571 H       1  LIG1        0.0280
     45 H          -0.9813   -1.3080   -0.2038 H       1  LIG1        0.0280
     46 H          -2.2674   -2.4848   -0.5637 H       1  LIG1        0.0280
     47 H          -0.8765   -2.3227   -1.6625 H       1  LIG1        0.0280
@<TRIPOS>BOND
     1     1     2   ar
     2     1     5   ar
     3     2     6   ar
     4     3     5   ar
     5     3     7   ar
     6     4     8   ar
     7     4     9   ar
     8     5    19    1
     9     6     7   ar
    10     6    20    1
    11     7    23    1
    12     8    10   ar
    13     8    22   ar
    14     9    14    1
    15     9    21   ar
    16    10    11   ar
    17    11    12   ar
    18    12    13   ar
    19    13    22   ar
    20    14    24   am
    21    14    25    2
    22    15    17    1
    23    15    23    1
    24    16    18    1
    25    16    23    1
    26    17    24    1
    27    18    24    1
    28    21    22   ar
    29     1    26    1
    30     2    27    1
    31     3    28    1
    32     4    29    1
    33    10    30    1
    34    11    31    1
    35    12    32    1
    36    13    33    1
    37    15    34    1
    38    15    35    1
    39    16    36    1
    40    16    37    1
    41    17    38    1
    42    17    39    1
    43    18    40    1
    44    18    41    1
    45    19    42    1
    46    19    43    1
    47    19    44    1
    48    20    45    1
    49    20    46    1
    50    20    47    1
