@<TRIPOS>MOLECULE
ChEBML3776
 58 61 0 0 0
SMALL
USER_CHARGES

@<TRIPOS>ATOM
      1 C          -2.2210    0.2651   -3.1252 C.ar    1  LIG1       -0.0031
      2 C         -12.0688   -3.6248    2.0020 C.3     1  LIG1       -0.0133
      3 C         -10.2193   -4.9549    0.3772 C.3     1  LIG1        0.0435
      4 C          -9.0413   -1.4971    2.3961 C.3     1  LIG1        0.0480
      5 C          -3.3857    0.9530   -2.8518 C.ar    1  LIG1        0.0341
      6 C         -10.7661   -3.1154    1.8835 C.3     1  LIG1        0.0700
      7 C          -9.8408   -3.7950    1.0604 C.3     1  LIG1        0.2167
      8 C         -10.3447   -1.9569    2.5500 C.3     1  LIG1        0.0456
      9 C         -12.4396   -4.7837    1.3167 C.3     1  LIG1        0.1059
     10 C         -11.5176   -5.4462    0.5071 C.3     1  LIG1        0.1114
     11 C          -1.9210   -0.7682   -2.2613 C.ar    1  LIG1        0.1248
     12 C          -8.1761   -2.2029    1.5768 C.3     1  LIG1        0.2708
     13 C          -3.8005   -0.3661   -1.0477 C.ar    1  LIG1        0.2181
     14 C          -6.5722   -0.3655    1.4702 C.3     1  LIG1        0.0328
     15 C          -5.9977   -2.6422    0.5903 C.3     1  LIG1        0.0328
     16 C          -5.8202    0.1026    0.2213 C.3     1  LIG1        0.0303
     17 C          -4.5840   -2.0573    0.5285 C.3     1  LIG1        0.0303
     18 C           0.1163   -1.1530   -3.6254 C.3     1  LIG1        0.0011
     19 C          -0.3516   -2.5846   -1.6305 C.3     1  LIG1        0.0011
     20 C         -14.6798   -4.7824    0.5182 C.3     1  LIG1        0.0424
     21 C         -11.6800   -7.8189    0.5076 C.3     1  LIG1        0.0424
     22 N          -4.2022    0.6631   -1.8176 N.ar    1  LIG1       -0.2234
     23 N          -2.6911   -1.1124   -1.2083 N.ar    1  LIG1       -0.1998
     24 N          -8.5906   -3.3089    0.9447 N.3     1  LIG1       -0.1914
     25 N          -6.8515   -1.7842    1.3863 N.3     1  LIG1       -0.2753
     26 N          -4.6069   -0.6878    0.0147 N.pl3   1  LIG1       -0.2969
     27 N         -11.2172   -1.2255    3.3898 N.3     1  LIG1       -0.3573
     28 N          -0.7322   -1.4981   -2.5062 N.pl3   1  LIG1       -0.3218
     29 O         -13.7099   -5.2597    1.4483 O.3     1  LIG1       -0.3465
     30 O         -11.8747   -6.5766   -0.1649 O.3     1  LIG1       -0.3463
     31 H          -1.5921    0.5311   -3.9658 H       1  LIG1        0.0676
     32 H         -12.8106   -3.1304    2.6255 H       1  LIG1        0.0661
     33 H          -9.5046   -5.4756   -0.2552 H       1  LIG1        0.0722
     34 H          -8.7063   -0.5994    2.9091 H       1  LIG1        0.0729
     35 H          -3.7043    1.7822   -3.4747 H       1  LIG1        0.0842
     36 H          -5.9574   -0.1928    2.3622 H       1  LIG1        0.0487
     37 H          -7.4840    0.2335    1.5877 H       1  LIG1        0.0487
     38 H          -6.4010   -2.7355   -0.4264 H       1  LIG1        0.0487
     39 H          -5.9528   -3.6480    1.0246 H       1  LIG1        0.0487
     40 H          -6.4730    0.0091   -0.6564 H       1  LIG1        0.0486
     41 H          -5.5609    1.1622    0.3324 H       1  LIG1        0.0486
     42 H          -4.1422   -2.0433    1.5325 H       1  LIG1        0.0486
     43 H          -3.9521   -2.7059   -0.0912 H       1  LIG1        0.0486
     44 H           0.9831   -1.8182   -3.6589 H       1  LIG1        0.0432
     45 H           0.4676   -0.1220   -3.5297 H       1  LIG1        0.0432
     46 H          -0.4373   -1.2489   -4.5633 H       1  LIG1        0.0432
     47 H           0.5869   -3.0301   -1.9704 H       1  LIG1        0.0432
     48 H          -1.1263   -3.3562   -1.6269 H       1  LIG1        0.0432
     49 H          -0.2177   -2.2178   -0.6093 H       1  LIG1        0.0432
     50 H         -15.6485   -5.2396    0.7342 H       1  LIG1        0.0535
     51 H         -14.3652   -5.0327   -0.4981 H       1  LIG1        0.0535
     52 H         -14.7617   -3.6974    0.6153 H       1  LIG1        0.0535
     53 H         -12.0048   -8.6385   -0.1380 H       1  LIG1        0.0535
     54 H         -12.2535   -7.8245    1.4379 H       1  LIG1        0.0535
     55 H         -10.6180   -7.9369    0.7359 H       1  LIG1        0.0535
     56 H          -7.9202   -3.7971    0.3508 H       1  LIG1        0.4554
     57 H         -10.8630   -0.4331    3.8822 H       1  LIG1        0.1427
     58 H         -12.1402   -1.5709    3.5458 H       1  LIG1        0.1427
@<TRIPOS>BOND
     1     1     5   ar
     2     1    11   ar
     3     2     6    1
     4     2     9    1
     5     3     7    1
     6     3    10    1
     7     4     8    1
     8     4    12    1
     9     5    22   ar
    10     6     7    1
    11     6     8    1
    12     7    24    1
    13     8    27    1
    14     9    10    1
    15     9    29    1
    16    10    30    1
    17    11    23   ar
    18    11    28    1
    19    12    24    1
    20    12    25    1
    21    13    22   ar
    22    13    23   ar
    23    13    26    1
    24    14    16    1
    25    14    25    1
    26    15    17    1
    27    15    25    1
    28    16    26    1
    29    17    26    1
    30    18    28    1
    31    19    28    1
    32    20    29    1
    33    21    30    1
    34     1    31    1
    35     2    32    1
    36     3    33    1
    37     4    34    1
    38     5    35    1
    39    14    36    1
    40    14    37    1
    41    15    38    1
    42    15    39    1
    43    16    40    1
    44    16    41    1
    45    17    42    1
    46    17    43    1
    47    18    44    1
    48    18    45    1
    49    18    46    1
    50    19    47    1
    51    19    48    1
    52    19    49    1
    53    20    50    1
    54    20    51    1
    55    20    52    1
    56    21    53    1
    57    21    54    1
    58    21    55    1
    59    24    56    1
    60    27    57    1
    61    27    58    1
