@<TRIPOS>MOLECULE
ChEBML369923
 48 51 0 0 0
SMALL
USER_CHARGES

@<TRIPOS>ATOM
      1 C          -0.3695    1.0103   -2.8625 C.ar    1  LIG1       -0.0622
      2 C          -0.9740    1.7524   -1.8479 C.ar    1  LIG1       -0.0620
      3 C          -1.1491    0.2243   -3.7110 C.ar    1  LIG1       -0.0620
      4 C         -12.1646   -3.5089    1.7684 C.ar    1  LIG1       -0.0512
      5 C          -2.3583    1.7085   -1.6818 C.ar    1  LIG1       -0.0590
      6 C          -2.5334    0.1803   -3.5449 C.ar    1  LIG1       -0.0590
      7 C         -12.5283   -4.7848    1.3224 C.ar    1  LIG1       -0.0406
      8 C         -10.1226   -1.8979    1.9657 C.ar    1  LIG1       -0.0262
      9 C         -10.2518   -5.2416    0.6061 C.ar    1  LIG1       -0.0193
     10 C         -10.8263   -3.0892    1.6333 C.ar    1  LIG1       -0.0021
     11 C          -3.1380    0.9224   -2.5303 C.ar    1  LIG1       -0.0477
     12 C          -9.9027   -3.9635    1.0565 C.ar    1  LIG1        0.0397
     13 C         -11.5849   -5.6361    0.7505 C.ar    1  LIG1        0.0252
     14 C          -8.8098   -2.0689    1.5915 C.ar    1  LIG1        0.0947
     15 C          -7.7198   -1.1470    1.7234 C.2     1  LIG1        0.2598
     16 C          -6.5171   -0.6329   -1.6212 C.3     1  LIG1       -0.0341
     17 C          -4.8220    0.1762    0.0650 C.3     1  LIG1       -0.0341
     18 C          -6.9717   -1.6898   -0.6163 C.3     1  LIG1        0.0147
     19 C          -5.3097   -0.9046    1.0267 C.3     1  LIG1        0.0147
     20 C          -5.0476   -0.2418   -1.3970 C.3     1  LIG1       -0.0344
     21 C          -4.6306    0.8744   -2.3515 C.3     1  LIG1       -0.0249
     22 N          -8.6869   -3.3177    1.0438 N.ar    1  LIG1       -0.3100
     23 N          -6.7131   -1.2433    0.7536 N.am    1  LIG1       -0.2967
     24 N         -11.9804   -6.9190    0.3084 N.pl3   1  LIG1       -0.3582
     25 O          -7.6993   -0.3330    2.6448 O.2     1  LIG1       -0.2702
     26 H           0.7083    1.0457   -2.9925 H       1  LIG1        0.0622
     27 H          -0.3672    2.3655   -1.1878 H       1  LIG1        0.0623
     28 H          -0.6789   -0.3528   -4.5017 H       1  LIG1        0.0623
     29 H         -12.9102   -2.8555    2.2128 H       1  LIG1        0.0630
     30 H          -2.8207    2.2899   -0.8885 H       1  LIG1        0.0625
     31 H          -3.1328   -0.4350   -4.2106 H       1  LIG1        0.0625
     32 H         -13.5626   -5.1039    1.4295 H       1  LIG1        0.0642
     33 H         -10.5372   -1.0128    2.4298 H       1  LIG1        0.0651
     34 H          -9.5105   -5.8980    0.1614 H       1  LIG1        0.0662
     35 H          -6.6546   -1.0135   -2.6400 H       1  LIG1        0.0285
     36 H          -7.1531    0.2561   -1.5200 H       1  LIG1        0.0285
     37 H          -5.3601    1.1110    0.2690 H       1  LIG1        0.0285
     38 H          -3.7576    0.3704    0.2412 H       1  LIG1        0.0285
     39 H          -8.0347   -1.9057   -0.7622 H       1  LIG1        0.0469
     40 H          -6.4221   -2.6264   -0.7672 H       1  LIG1        0.0469
     41 H          -4.7226   -1.8223    0.9020 H       1  LIG1        0.0469
     42 H          -5.1672   -0.5668    2.0561 H       1  LIG1        0.0469
     43 H          -4.4209   -1.1189   -1.6066 H       1  LIG1        0.0307
     44 H          -4.9921    1.8347   -1.9696 H       1  LIG1        0.0319
     45 H          -5.1181    0.7264   -3.3207 H       1  LIG1        0.0319
     46 H          -7.8300   -3.7121    0.6811 H       1  LIG1        0.1529
     47 H         -12.9229   -7.2137    0.4563 H       1  LIG1        0.1426
     48 H         -11.2891   -7.5401   -0.0568 H       1  LIG1        0.1426
@<TRIPOS>BOND
     1     1     2   ar
     2     1     3   ar
     3     2     5   ar
     4     3     6   ar
     5     4     7   ar
     6     4    10   ar
     7     5    11   ar
     8     6    11   ar
     9     7    13   ar
    10     8    10   ar
    11     8    14   ar
    12     9    12   ar
    13     9    13   ar
    14    10    12   ar
    15    11    21    1
    16    12    22   ar
    17    13    24    1
    18    14    15    1
    19    14    22   ar
    20    15    23   am
    21    15    25    2
    22    16    18    1
    23    16    20    1
    24    17    19    1
    25    17    20    1
    26    18    23    1
    27    19    23    1
    28    20    21    1
    29     1    26    1
    30     2    27    1
    31     3    28    1
    32     4    29    1
    33     5    30    1
    34     6    31    1
    35     7    32    1
    36     8    33    1
    37     9    34    1
    38    16    35    1
    39    16    36    1
    40    17    37    1
    41    17    38    1
    42    18    39    1
    43    18    40    1
    44    19    41    1
    45    19    42    1
    46    20    43    1
    47    21    44    1
    48    21    45    1
    49    22    46    1
    50    24    47    1
    51    24    48    1
