@<TRIPOS>MOLECULE
ChEBML750250
 50 54 0 0 0
SMALL
USER_CHARGES

@<TRIPOS>ATOM
      1 C          -2.4831   -0.5200   -3.5552 C.ar    1  LIG1       -0.0573
      2 C          -2.3838    0.8650   -3.5765 C.ar    1  LIG1       -0.0437
      3 C          -9.9537   -6.3572   -1.0152 C.ar    1  LIG1       -0.0371
      4 C         -11.6646   -7.3808    0.3276 C.ar    1  LIG1       -0.0371
      5 C          -9.7553   -7.5562   -1.6713 C.ar    1  LIG1       -0.0416
      6 C         -11.4663   -8.5759   -0.3355 C.ar    1  LIG1       -0.0416
      7 C          -3.0740   -1.1226   -2.4596 C.ar    1  LIG1       -0.0217
      8 C          -9.9122   -2.0194    1.9998 C.ar    1  LIG1       -0.0312
      9 C          -2.8737    1.5944   -2.5122 C.ar    1  LIG1        0.0290
     10 C         -10.7692   -3.0635    1.6179 C.ar    1  LIG1        0.0290
     11 C         -10.9118   -6.2651   -0.0144 C.ar    1  LIG1        0.0572
     12 C         -10.5108   -8.6651   -1.3326 C.ar    1  LIG1        0.0407
     13 C          -8.5817   -2.1002    1.7150 C.ar    1  LIG1        0.0770
     14 C         -12.1580   -3.4099    1.6935 C.ar    1  LIG1        0.0659
     15 C          -3.5461   -0.3253   -1.4217 C.ar    1  LIG1        0.1199
     16 C         -10.1642   -4.1419    0.9550 C.ar    1  LIG1        0.1035
     17 C          -7.5200   -1.1360    2.0182 C.2     1  LIG1        0.2525
     18 C          -4.5343    0.1720    0.5867 C.3     1  LIG1        0.0288
     19 C          -5.3736   -1.5581   -0.7906 C.3     1  LIG1        0.0288
     20 C          -5.1800   -0.4119    1.8475 C.3     1  LIG1        0.0303
     21 C          -6.0731   -2.2601    0.3835 C.3     1  LIG1        0.0303
     22 C         -13.2356   -2.5667    2.3251 C.3     1  LIG1       -0.0199
     23 N          -3.4377    0.9928   -1.4818 N.ar    1  LIG1       -0.2414
     24 N         -12.3405   -4.5641    1.1260 N.ar    1  LIG1       -0.1802
     25 N         -11.1147   -5.0501    0.6532 N.ar    1  LIG1       -0.1863
     26 N          -4.1422   -0.9177   -0.3144 N.pl3   1  LIG1       -0.3127
     27 N          -6.3094   -1.2626    1.4395 N.am    1  LIG1       -0.2942
     28 O          -7.7316   -0.2212    2.7924 O.2     1  LIG1       -0.2710
     29 S          -8.4535   -3.6773    0.8895 S.2     1  LIG1       -0.0662
     30 CL        -10.2597  -10.1703   -2.1600 Cl      1  LIG1       -0.0843
     31 H          -2.1070   -1.1132   -4.3756 H       1  LIG1        0.0624
     32 H          -1.9274    1.3663   -4.4173 H       1  LIG1        0.0639
     33 H          -9.3644   -5.4920   -1.2805 H       1  LIG1        0.0644
     34 H         -12.4074   -7.3129    1.1087 H       1  LIG1        0.0644
     35 H          -9.0101   -7.6283   -2.4498 H       1  LIG1        0.0639
     36 H         -12.0548   -9.4426   -0.0731 H       1  LIG1        0.0639
     37 H          -3.1672   -2.1975   -2.4101 H       1  LIG1        0.0659
     38 H         -10.3052   -1.1562    2.5164 H       1  LIG1        0.0644
     39 H          -2.7981    2.6717   -2.5245 H       1  LIG1        0.0840
     40 H          -5.2482    0.8221    0.0810 H       1  LIG1        0.0485
     41 H          -3.6520    0.7486    0.8644 H       1  LIG1        0.0485
     42 H          -6.0362   -0.8022   -1.2121 H       1  LIG1        0.0485
     43 H          -5.1276   -2.2929   -1.5570 H       1  LIG1        0.0485
     44 H          -5.5405    0.3968    2.4833 H       1  LIG1        0.0486
     45 H          -4.4484   -1.0090    2.3917 H       1  LIG1        0.0486
     46 H          -5.4387   -3.0587    0.7683 H       1  LIG1        0.0486
     47 H          -7.0246   -2.6747    0.0506 H       1  LIG1        0.0486
     48 H         -13.6604   -1.8989    1.5755 H       1  LIG1        0.0296
     49 H         -14.0184   -3.2139    2.7205 H       1  LIG1        0.0296
     50 H         -12.8074   -1.9772    3.1358 H       1  LIG1        0.0296
@<TRIPOS>BOND
     1     1     2   ar
     2     1     7   ar
     3     2     9   ar
     4     3     5   ar
     5     3    11   ar
     6     4     6   ar
     7     4    11   ar
     8     5    12   ar
     9     6    12   ar
    10     7    15   ar
    11     8    10   ar
    12     8    13   ar
    13     9    23   ar
    14    10    14   ar
    15    10    16   ar
    16    11    25    1
    17    12    30    1
    18    13    17    1
    19    13    29   ar
    20    14    22    1
    21    14    24   ar
    22    15    23   ar
    23    15    26    1
    24    16    25   ar
    25    16    29   ar
    26    17    27   am
    27    17    28    2
    28    18    20    1
    29    18    26    1
    30    19    21    1
    31    19    26    1
    32    20    27    1
    33    21    27    1
    34    24    25   ar
    35     1    31    1
    36     2    32    1
    37     3    33    1
    38     4    34    1
    39     5    35    1
    40     6    36    1
    41     7    37    1
    42     8    38    1
    43     9    39    1
    44    18    40    1
    45    18    41    1
    46    19    42    1
    47    19    43    1
    48    20    44    1
    49    20    45    1
    50    21    46    1
    51    21    47    1
    52    22    48    1
    53    22    49    1
    54    22    50    1
