@<TRIPOS>MOLECULE
ChEBML570252
 52 55 0 0 0
SMALL
USER_CHARGES

@<TRIPOS>ATOM
      1 CZ          0.5090   -3.6623   -1.2456 C.ar    1  PHE1        0.0000
      2 C          -3.1721    1.1096    2.3573 C.ar    0  UNK0        0.0000
      3 CE1         0.3754   -2.3241   -0.9260 C.ar    1  PHE1        0.0000
      4 CE2        -0.2221   -4.2004   -2.2881 C.ar    1  PHE1        0.0000
      5 C          -4.1507    0.8418    3.3012 C.ar    0  UNK0        0.0000
      6 C          -3.2370    0.5367    1.1058 C.ar    0  UNK0        0.0000
      7 CD1        -0.4891   -1.5237   -1.6494 C.ar    1  PHE1        0.0000
      8 CD2        -1.0896   -3.4010   -3.0087 C.ar    1  PHE1        0.0000
      9 C         -10.2427   -5.1456    0.4553 C.ar    0  UNK0        0.0000
     10 C          -5.2011   -0.0007    2.9988 C.ar    0  UNK0        0.0000
     11 C         -11.5555   -5.5207    0.6317 C.ar    0  UNK0        0.0000
     12 C         -12.0026   -3.5451    1.9069 C.ar    0  UNK0        0.0000
     13 C          -9.9362   -2.0122    2.1744 C.ar    0  UNK0        0.0000
     14 C         -10.6709   -3.1421    1.7411 C.ar    0  UNK0        0.0000
     15 C          -4.2941   -0.3183    0.7847 C.ar    0  UNK0        0.0000
     16 CG         -1.2194   -2.0616   -2.6925 C.ar    1  PHE1        0.0000
     17 C          -9.7834   -3.9527    1.0069 C.ar    0  UNK0        0.0000
     18 C          -5.2865   -0.5823    1.7406 C.ar    0  UNK0        0.0000
     19 C         -12.4302   -4.7192    1.3567 C.ar    0  UNK0        0.0000
     20 C          -8.6635   -2.1456    1.7166 C.ar    0  UNK0        0.0000
     21 C          -4.3696   -0.9349   -0.5531 C.2     0  UNK0        0.0000
     22 C          -7.5714   -1.1881    1.9434 C.2     0  UNK0        0.0000
     23 C          -4.5176   -0.4419   -3.6841 C.2     1  PHE1        0.0000
     24 CB         -2.1618   -1.1890   -3.4811 C.3     1  PHE1        0.0000
     25 CA         -3.5458   -1.2139   -2.8293 C.3     1  PHE1        0.0000
     26 N          -8.5614   -3.3216    0.9990 N.ar    0  UNK0        0.0000
     27 N          -6.3479   -1.4277    1.4314 N.am    0  UNK0        0.0000
     28 N          -3.4708   -0.6015   -1.5005 N.am    1  PHE1        0.0000
     29 O          -4.9587    0.6255   -3.2934 O.co2   1  PHE1       -0.5000
     30 O          -5.2426   -1.7440   -0.8012 O.2     0  UNK0        0.0000
     31 O          -7.7720   -0.1794    2.5932 O.2     0  UNK0        0.0000
     32 OXT        -4.8664   -0.8871   -4.7642 O.co2   1  PHE1       -0.5000
     33 CL        -14.0806   -5.2159    1.5645 Cl      0  UNK0        0.0000
     34 HZ          1.1849   -4.2874   -0.6809 H       1  PHE1        0.0000
     35 H          -2.3542    1.7703    2.6039 H       0  UNK0        0.0000
     36 HE1         0.9465   -1.9036   -0.1115 H       1  PHE1        0.0000
     37 HE2        -0.1174   -5.2458   -2.5380 H       1  PHE1        0.0000
     38 H          -4.0908    1.2951    4.2796 H       0  UNK0        0.0000
     39 H          -2.4713    0.7481    0.3741 H       0  UNK0        0.0000
     40 HD1        -0.5935   -0.4782   -1.3997 H       1  PHE1        0.0000
     41 HD2        -1.6636   -3.8222   -3.8208 H       1  PHE1        0.0000
     42 H          -9.5709   -5.7752   -0.1091 H       0  UNK0        0.0000
     43 H          -5.9598   -0.2043    3.7399 H       0  UNK0        0.0000
     44 H         -11.9093   -6.4467    0.2030 H       0  UNK0        0.0000
     45 H         -12.6888   -2.9289    2.4689 H       0  UNK0        0.0000
     46 H         -10.3183   -1.1916    2.7634 H       0  UNK0        0.0000
     47 HB1        -2.2344   -1.5630   -4.5024 H       1  PHE1        0.0000
     48 HB2        -1.7847   -0.1665   -3.4945 H       1  PHE1        0.0000
     49 HA         -3.8846   -2.2456   -2.7352 H       1  PHE1        0.0000
     50 H          -7.7590   -3.6497    0.5635 H       0  UNK0        0.0000
     51 H          -6.2072   -2.1893    0.8476 H       0  UNK0        0.0000
     52 H          -2.7744    0.0441   -1.3026 H       1  PHE1        0.0000
@<TRIPOS>BOND
     1     1     3   ar
     2     1     4   ar
     3     2     5   ar
     4     2     6   ar
     5     3     7   ar
     6     4     8   ar
     7     5    10   ar
     8     6    15   ar
     9     7    16   ar
    10     8    16   ar
    11     9    11   ar
    12     9    17   ar
    13    10    18   ar
    14    11    19   ar
    15    12    14   ar
    16    12    19   ar
    17    13    14   ar
    18    13    20   ar
    19    14    17   ar
    20    15    18   ar
    21    15    21    1
    22    16    24    1
    23    17    26   ar
    24    18    27    1
    25    19    33    1
    26    20    22    1
    27    20    26   ar
    28    21    28   am
    29    21    30    2
    30    22    27   am
    31    22    31    2
    32    23    25    1
    33    23    29   ar
    34    23    32   ar
    35    24    25    1
    36    25    28    1
    37     1    34    1
    38     2    35    1
    39     3    36    1
    40     4    37    1
    41     5    38    1
    42     6    39    1
    43     7    40    1
    44     8    41    1
    45     9    42    1
    46    10    43    1
    47    11    44    1
    48    12    45    1
    49    13    46    1
    50    24    47    1
    51    24    48    1
    52    25    49    1
    53    26    50    1
    54    27    51    1
    55    28    52    1
