@<TRIPOS>MOLECULE
ChEBML433565
 34 36 0 0 0
SMALL
USER_CHARGES

@<TRIPOS>ATOM
      1 C          -2.7452    0.7770   -3.5350 C.ar    1  LIG1       -0.0622
      2 C          -2.1774   -0.4353   -3.1434 C.ar    1  LIG1       -0.0620
      3 C          -3.7461    1.3614   -2.7589 C.ar    1  LIG1       -0.0620
      4 C         -12.2268   -4.3861    0.7391 C.ar    1  LIG1       -0.0410
      5 C          -2.6107   -1.0634   -1.9757 C.ar    1  LIG1       -0.0590
      6 C          -4.1794    0.7333   -1.5913 C.ar    1  LIG1       -0.0590
      7 C         -11.8485   -3.2248    1.4095 C.ar    1  LIG1       -0.0257
      8 C         -11.2511   -5.1773    0.1333 C.ar    1  LIG1        0.0295
      9 C          -3.6116   -0.4791   -1.1997 C.ar    1  LIG1       -0.0480
     10 C         -10.4870   -2.9741    1.3996 C.ar    1  LIG1        0.1288
     11 C          -9.5656   -3.8012    0.7786 C.ar    1  LIG1        0.1857
     12 C          -8.5052   -2.2013    1.6365 C.ar    1  LIG1        0.2184
     13 C          -7.4442   -1.2635    2.0859 C.2     1  LIG1        0.2051
     14 C          -4.0804   -1.1572    0.0618 C.3     1  LIG1       -0.0274
     15 C          -5.9980   -1.5661    1.7240 C.3     1  LIG1        0.0150
     16 C          -5.5491   -0.8902    0.4234 C.3     1  LIG1       -0.0418
     17 N          -9.9166   -4.9336    0.1225 N.ar    1  LIG1       -0.2347
     18 N          -8.3013   -3.2971    0.9365 N.ar    1  LIG1       -0.1984
     19 O          -7.7631   -0.2817    2.7522 O.2     1  LIG1       -0.2900
     20 O          -9.8043   -1.9344    1.9580 O.2     1  LIG1       -0.2847
     21 H          -2.4068    1.2667   -4.4436 H       1  LIG1        0.0622
     22 H          -1.3973   -0.8900   -3.7470 H       1  LIG1        0.0623
     23 H          -4.1876    2.3060   -3.0630 H       1  LIG1        0.0623
     24 H         -13.2723   -4.6725    0.6890 H       1  LIG1        0.0640
     25 H          -2.1628   -2.0080   -1.6785 H       1  LIG1        0.0625
     26 H          -4.9598    1.1960   -0.9929 H       1  LIG1        0.0625
     27 H         -12.5621   -2.5736    1.8971 H       1  LIG1        0.0652
     28 H         -11.5433   -6.0843   -0.3898 H       1  LIG1        0.0840
     29 H          -3.9114   -2.2392   -0.0090 H       1  LIG1        0.0316
     30 H          -3.4438   -0.8159    0.8886 H       1  LIG1        0.0316
     31 H          -5.8337   -2.6453    1.6430 H       1  LIG1        0.0352
     32 H          -5.3856   -1.1910    2.5526 H       1  LIG1        0.0352
     33 H          -5.6574    0.1938    0.5571 H       1  LIG1        0.0274
     34 H          -6.2048   -1.1660   -0.4107 H       1  LIG1        0.0274
@<TRIPOS>BOND
     1     1     2   ar
     2     1     3   ar
     3     2     5   ar
     4     3     6   ar
     5     4     7   ar
     6     4     8   ar
     7     5     9   ar
     8     6     9   ar
     9     7    10   ar
    10     8    17   ar
    11     9    14    1
    12    10    11   ar
    13    10    20   ar
    14    11    17   ar
    15    11    18   ar
    16    12    13    1
    17    12    18   ar
    18    12    20   ar
    19    13    15    1
    20    13    19    2
    21    14    16    1
    22    15    16    1
    23     1    21    1
    24     2    22    1
    25     3    23    1
    26     4    24    1
    27     5    25    1
    28     6    26    1
    29     7    27    1
    30     8    28    1
    31    14    29    1
    32    14    30    1
    33    15    31    1
    34    15    32    1
    35    16    33    1
    36    16    34    1
