@<TRIPOS>MOLECULE
ChEBML644982
 41 43 0 0 0
SMALL
USER_CHARGES

@<TRIPOS>ATOM
      1 C          -2.5319    0.4872   -3.9135 C.ar    1  LIG1       -0.0622
      2 C          -2.9984    1.6146   -3.2375 C.ar    1  LIG1       -0.0615
      3 C          -2.2710   -0.6891   -3.2107 C.ar    1  LIG1       -0.0615
      4 C          -3.2040    1.5657   -1.8587 C.ar    1  LIG1       -0.0497
      5 C          -2.4765   -0.7379   -1.8319 C.ar    1  LIG1       -0.0497
      6 C          -8.8540   -3.2593    0.8970 C.ar    1  LIG1       -0.0485
      7 C          -9.8782   -2.1304    2.7714 C.ar    1  LIG1       -0.0485
      8 C          -9.9925   -4.0520    0.7522 C.ar    1  LIG1       -0.0256
      9 C         -11.0169   -2.9231    2.6266 C.ar    1  LIG1       -0.0256
     10 C          -8.7968   -2.2985    1.9067 C.ar    1  LIG1        0.0180
     11 C          -2.9430    0.3895   -1.1559 C.ar    1  LIG1        0.0372
     12 C         -11.0739   -3.8839    1.6170 C.ar    1  LIG1        0.1228
     13 C          -7.6008   -1.4660    2.0584 C.2     1  LIG1        0.1656
     14 C          -3.1580    0.3385    0.2862 C.2     1  LIG1        0.2455
     15 C          -5.1688   -1.5368    2.5394 C.3     1  LIG1       -0.0271
     16 C          -6.0242   -1.8342    0.1606 C.3     1  LIG1       -0.0271
     17 C          -4.7077   -0.1306    2.1554 C.3     1  LIG1        0.0151
     18 C          -5.5478   -0.4140   -0.1403 C.3     1  LIG1        0.0151
     19 C          -6.2890   -2.0699    1.6473 C.3     1  LIG1        0.0253
     20 N          -4.4176   -0.0541    0.7241 N.am    1  LIG1       -0.2978
     21 O          -7.6014   -0.3214    2.4996 O.2     1  LIG1       -0.2938
     22 O          -2.1993    0.6481    0.9872 O.2     1  LIG1       -0.2716
     23 F         -12.1674   -4.6449    1.4778 F       1  LIG1       -0.2069
     24 H          -2.3718    0.5253   -4.9869 H       1  LIG1        0.0622
     25 H          -3.2013    2.5304   -3.7849 H       1  LIG1        0.0623
     26 H          -1.9080   -1.5670   -3.7370 H       1  LIG1        0.0623
     27 H          -3.5677    2.4501   -1.3420 H       1  LIG1        0.0631
     28 H          -2.2697   -1.6600   -1.2945 H       1  LIG1        0.0631
     29 H          -8.0171   -3.3987    0.2175 H       1  LIG1        0.0631
     30 H          -9.8447   -1.3843    3.5615 H       1  LIG1        0.0631
     31 H         -10.0373   -4.7999   -0.0339 H       1  LIG1        0.0653
     32 H         -11.8589   -2.7926    3.3002 H       1  LIG1        0.0653
     33 H          -4.3101   -2.2153    2.4512 H       1  LIG1        0.0290
     34 H          -5.4722   -1.5440    3.5932 H       1  LIG1        0.0290
     35 H          -6.9210   -2.0501   -0.4322 H       1  LIG1        0.0290
     36 H          -5.2470   -2.5370   -0.1667 H       1  LIG1        0.0290
     37 H          -5.4882    0.6073    2.3741 H       1  LIG1        0.0470
     38 H          -3.8254    0.1433    2.7432 H       1  LIG1        0.0470
     39 H          -5.2842   -0.3365   -1.1982 H       1  LIG1        0.0470
     40 H          -6.3460    0.3141    0.0443 H       1  LIG1        0.0470
     41 H          -6.3944   -3.1482    1.8217 H       1  LIG1        0.0388
@<TRIPOS>BOND
     1     1     2   ar
     2     1     3   ar
     3     2     4   ar
     4     3     5   ar
     5     4    11   ar
     6     5    11   ar
     7     6     8   ar
     8     6    10   ar
     9     7     9   ar
    10     7    10   ar
    11     8    12   ar
    12     9    12   ar
    13    10    13    1
    14    11    14    1
    15    12    23    1
    16    13    19    1
    17    13    21    2
    18    14    20   am
    19    14    22    2
    20    15    17    1
    21    15    19    1
    22    16    18    1
    23    16    19    1
    24    17    20    1
    25    18    20    1
    26     1    24    1
    27     2    25    1
    28     3    26    1
    29     4    27    1
    30     5    28    1
    31     6    29    1
    32     7    30    1
    33     8    31    1
    34     9    32    1
    35    15    33    1
    36    15    34    1
    37    16    35    1
    38    16    36    1
    39    17    37    1
    40    17    38    1
    41    18    39    1
    42    18    40    1
    43    19    41    1
