@<TRIPOS>MOLECULE
ChEBML1095256
 47 49 0 0 0
SMALL
USER_CHARGES

@<TRIPOS>ATOM
      1 C          -2.3906    1.2324   -4.2007 C.ar    1  LIG1       -0.0622
      2 C         -12.3166   -5.1586    1.4978 C.ar    1  LIG1       -0.0614
      3 C          -3.0984    0.0324   -4.1319 C.ar    1  LIG1       -0.0619
      4 C          -1.6169    1.6490   -3.1175 C.ar    1  LIG1       -0.0619
      5 C         -11.5062   -5.6225    0.4584 C.ar    1  LIG1       -0.0596
      6 C         -11.9421   -4.0475    2.2658 C.ar    1  LIG1       -0.0520
      7 C          -3.0324   -0.7509   -2.9796 C.ar    1  LIG1       -0.0574
      8 C          -1.5509    0.8656   -1.9653 C.ar    1  LIG1       -0.0574
      9 C         -10.2953   -4.9962    0.1481 C.ar    1  LIG1       -0.0306
     10 C         -10.7285   -3.4020    1.9711 C.ar    1  LIG1        0.0111
     11 C          -2.2586   -0.3344   -1.8963 C.ar    1  LIG1       -0.0306
     12 C         -10.0176   -2.2884    2.4910 C.ar    1  LIG1       -0.0040
     13 C          -9.9499   -3.8945    0.9287 C.ar    1  LIG1        0.0899
     14 C          -8.8692   -2.1772    1.7417 C.ar    1  LIG1        0.1579
     15 C          -7.7392   -1.2162    1.8049 C.2     1  LIG1        0.3177
     16 C          -4.4746   -1.4593    0.3329 C.2     1  LIG1        0.2439
     17 C         -10.4295   -1.4220    3.6126 C.3     1  LIG1       -0.0362
     18 C          -5.9727    0.5150   -0.1276 C.3     1  LIG1       -0.0291
     19 C          -2.8711    0.2416    1.2338 C.3     1  LIG1        0.0032
     20 C          -2.1874   -1.1769   -0.6557 C.3     1  LIG1        0.0389
     21 C          -5.6748   -0.6453    0.8108 C.3     1  LIG1        0.1412
     22 N          -3.2299   -0.8243    0.3054 N.am    1  LIG1       -0.2983
     23 O          -7.6789   -0.3056    2.6164 O.2     1  LIG1       -0.2582
     24 O          -4.6395   -2.6348   -0.0116 O.2     1  LIG1       -0.2744
     25 O          -8.8186   -3.1469    0.7914 O.2     1  LIG1       -0.3031
     26 O          -6.8124   -1.5008    0.8502 O.3     1  LIG1       -0.2976
     27 H          -2.4410    1.8416   -5.0985 H       1  LIG1        0.0622
     28 H         -13.2527   -5.6664    1.7150 H       1  LIG1        0.0623
     29 H          -3.7001   -0.2927   -4.9756 H       1  LIG1        0.0623
     30 H          -1.0648    2.5827   -3.1713 H       1  LIG1        0.0623
     31 H         -11.8218   -6.4869   -0.1204 H       1  LIG1        0.0623
     32 H         -12.5834   -3.6995    3.0698 H       1  LIG1        0.0630
     33 H          -3.5874   -1.6843   -2.9347 H       1  LIG1        0.0626
     34 H          -0.9455    1.1982   -1.1262 H       1  LIG1        0.0626
     35 H          -9.6612   -5.3502   -0.6561 H       1  LIG1        0.0650
     36 H         -10.0511   -1.8085    4.5731 H       1  LIG1        0.0281
     37 H         -10.0569   -0.3897    3.4967 H       1  LIG1        0.0281
     38 H         -11.5273   -1.3423    3.6924 H       1  LIG1        0.0281
     39 H          -6.1318    0.1874   -1.1583 H       1  LIG1        0.0262
     40 H          -5.1501    1.2380   -0.1137 H       1  LIG1        0.0262
     41 H          -6.8720    1.0538    0.1928 H       1  LIG1        0.0262
     42 H          -2.4087   -0.1803    2.1298 H       1  LIG1        0.0433
     43 H          -3.7625    0.8022    1.5284 H       1  LIG1        0.0433
     44 H          -2.1638    0.9300    0.7637 H       1  LIG1        0.0433
     45 H          -2.3013   -2.2381   -0.9026 H       1  LIG1        0.0520
     46 H          -1.2194   -1.0611   -0.1571 H       1  LIG1        0.0520
     47 H          -5.5184   -0.3023    1.8360 H       1  LIG1        0.0709
@<TRIPOS>BOND
     1     1     3   ar
     2     1     4   ar
     3     2     5   ar
     4     2     6   ar
     5     3     7   ar
     6     4     8   ar
     7     5     9   ar
     8     6    10   ar
     9     7    11   ar
    10     8    11   ar
    11     9    13   ar
    12    10    12   ar
    13    10    13   ar
    14    11    20    1
    15    12    14   ar
    16    12    17    1
    17    13    25   ar
    18    14    15    1
    19    14    25   ar
    20    15    23    2
    21    15    26    1
    22    16    21    1
    23    16    22   am
    24    16    24    2
    25    18    21    1
    26    19    22    1
    27    20    22    1
    28    21    26    1
    29     1    27    1
    30     2    28    1
    31     3    29    1
    32     4    30    1
    33     5    31    1
    34     6    32    1
    35     7    33    1
    36     8    34    1
    37     9    35    1
    38    17    36    1
    39    17    37    1
    40    17    38    1
    41    18    39    1
    42    18    40    1
    43    18    41    1
    44    19    42    1
    45    19    43    1
    46    19    44    1
    47    20    45    1
    48    20    46    1
    49    21    47    1
