@<TRIPOS>MOLECULE
ChEBML249108
 57 60 0 0 0
SMALL
USER_CHARGES

@<TRIPOS>ATOM
      1 C          -2.3278    1.0002   -3.4594 C.ar    1  LIG1       -0.0418
      2 C         -10.3669   -5.1926    0.4492 C.ar    1  LIG1       -0.0383
      3 C          -1.8026   -0.2257   -3.0735 C.ar    1  LIG1       -0.0360
      4 C         -11.6829   -5.5491    0.6324 C.ar    1  LIG1       -0.0377
      5 C         -12.0892   -3.5455    1.9038 C.ar    1  LIG1       -0.0304
      6 C          -9.9917   -2.0517    2.1434 C.ar    1  LIG1       -0.0261
      7 C          -3.4685    1.4724   -2.8428 C.ar    1  LIG1        0.0292
      8 C         -10.7509   -3.1708    1.7240 C.ar    1  LIG1       -0.0003
      9 C          -9.8850   -4.0036    0.9896 C.ar    1  LIG1        0.0379
     10 C         -12.5463   -4.7284    1.3590 C.ar    1  LIG1        0.0437
     11 C          -2.4505   -0.9372   -2.0724 C.ar    1  LIG1        0.0670
     12 C          -8.7253   -2.2121    1.6776 C.ar    1  LIG1        0.0947
     13 C          -3.6042   -0.3982   -1.4973 C.ar    1  LIG1        0.1412
     14 C          -7.6139   -1.2725    1.8891 C.2     1  LIG1        0.2599
     15 C          -4.4842   -0.1587    0.6089 C.3     1  LIG1        0.0288
     16 C          -5.5886   -1.4539   -1.0334 C.3     1  LIG1        0.0288
     17 C          -5.1944   -0.8737    1.7629 C.3     1  LIG1        0.0303
     18 C          -6.3718   -2.2543    0.0122 C.3     1  LIG1        0.0303
     19 C          -0.4817   -4.1271   -1.6818 C.3     1  LIG1       -0.0497
     20 C         -13.7865   -5.6577    4.1991 C.3     1  LIG1        0.0225
     21 C          -0.8148   -2.7846   -2.3354 C.3     1  LIG1        0.0056
     22 N          -4.0660    0.7762   -1.8930 N.ar    1  LIG1       -0.2394
     23 N          -8.6497   -3.3950    0.9689 N.ar    1  LIG1       -0.3101
     24 N          -4.2699   -1.1007   -0.4956 N.pl3   1  LIG1       -0.3112
     25 N          -6.4429   -1.4588    1.2484 N.am    1  LIG1       -0.2936
     26 N          -1.9587   -2.1781   -1.6499 N.pl3   1  LIG1       -0.3419
     27 N         -13.8819   -5.1066    1.5366 N.pl3   1  LIG1       -0.2633
     28 O          -7.7516   -0.3272    2.6422 O.2     1  LIG1       -0.2701
     29 O         -15.6750   -6.4293    2.4533 O.2     1  LIG1       -0.4814
     30 O         -13.3930   -7.3778    2.1752 O.2     1  LIG1       -0.4814
     31 S         -14.2634   -6.3315    2.5837 S.O2    1  LIG1       -0.1957
     32 H          -1.8480    1.5790   -4.2348 H       1  LIG1        0.0639
     33 H          -9.7072   -5.8355   -0.1147 H       1  LIG1        0.0643
     34 H          -0.9107   -0.6166   -3.5406 H       1  LIG1        0.0644
     35 H         -12.0510   -6.4726    0.2104 H       1  LIG1        0.0643
     36 H         -12.7594   -2.9122    2.4661 H       1  LIG1        0.0650
     37 H         -10.3541   -1.2197    2.7288 H       1  LIG1        0.0651
     38 H          -3.8786    2.4260   -3.1412 H       1  LIG1        0.0840
     39 H          -3.5224    0.2208    0.9540 H       1  LIG1        0.0485
     40 H          -5.0991    0.6722    0.2632 H       1  LIG1        0.0485
     41 H          -6.1361   -0.5439   -1.2788 H       1  LIG1        0.0485
     42 H          -5.4643   -2.0563   -1.9333 H       1  LIG1        0.0485
     43 H          -4.5536   -1.6631    2.1555 H       1  LIG1        0.0486
     44 H          -5.4226   -0.1583    2.5530 H       1  LIG1        0.0486
     45 H          -5.8614   -3.1967    0.2110 H       1  LIG1        0.0486
     46 H          -7.3787   -2.4520   -0.3555 H       1  LIG1        0.0486
     47 H           0.3694   -4.5784   -2.1917 H       1  LIG1        0.0246
     48 H          -0.2340   -3.9688   -0.6321 H       1  LIG1        0.0246
     49 H          -1.3431   -4.7909   -1.7556 H       1  LIG1        0.0246
     50 H         -14.4156   -4.7994    4.4349 H       1  LIG1        0.0442
     51 H         -13.9148   -6.4233    4.9643 H       1  LIG1        0.0442
     52 H         -12.7425   -5.3457    4.1688 H       1  LIG1        0.0442
     53 H           0.0467   -2.1209   -2.2615 H       1  LIG1        0.0463
     54 H          -1.0624   -2.9430   -3.3850 H       1  LIG1        0.0463
     55 H          -7.8568   -3.7411    0.5303 H       1  LIG1        0.1529
     56 H          -2.3754   -2.6362   -0.9033 H       1  LIG1        0.1466
     57 H         -14.5842   -4.6513    1.0463 H       1  LIG1        0.1702
@<TRIPOS>BOND
     1     1     3   ar
     2     1     7   ar
     3     2     4   ar
     4     2     9   ar
     5     3    11   ar
     6     4    10   ar
     7     5     8   ar
     8     5    10   ar
     9     6     8   ar
    10     6    12   ar
    11     7    22   ar
    12     8     9   ar
    13     9    23   ar
    14    10    27    1
    15    11    13   ar
    16    11    26    1
    17    12    14    1
    18    12    23   ar
    19    13    22   ar
    20    13    24    1
    21    14    25   am
    22    14    28    2
    23    15    17    1
    24    15    24    1
    25    16    18    1
    26    16    24    1
    27    17    25    1
    28    18    25    1
    29    19    21    1
    30    20    31    1
    31    21    26    1
    32    27    31    1
    33    29    31    2
    34    30    31    2
    35     1    32    1
    36     2    33    1
    37     3    34    1
    38     4    35    1
    39     5    36    1
    40     6    37    1
    41     7    38    1
    42    15    39    1
    43    15    40    1
    44    16    41    1
    45    16    42    1
    46    17    43    1
    47    17    44    1
    48    18    45    1
    49    18    46    1
    50    19    47    1
    51    19    48    1
    52    19    49    1
    53    20    50    1
    54    20    51    1
    55    20    52    1
    56    21    53    1
    57    21    54    1
    58    23    55    1
    59    26    56    1
    60    27    57    1
