@<TRIPOS>MOLECULE
ChEBML300416
 51 54 0 0 0
SMALL
USER_CHARGES

@<TRIPOS>ATOM
      1 C           0.5989   -1.1334   -3.0344 C.ar    1  LIG1       -0.0619
      2 C          -0.2180   -2.2193   -2.6816 C.ar    1  LIG1       -0.0619
      3 C           0.0541    0.1405   -3.2087 C.ar    1  LIG1       -0.0587
      4 C          -1.5914   -2.0467   -2.4968 C.ar    1  LIG1       -0.0569
      5 C         -10.6775   -5.1065    0.5681 C.ar    1  LIG1       -0.0387
      6 C         -11.9388   -5.5194    1.0071 C.ar    1  LIG1       -0.0416
      7 C         -12.0757   -3.6520    2.5535 C.ar    1  LIG1       -0.0343
      8 C          -9.9635   -2.1234    2.4751 C.ar    1  LIG1       -0.0262
      9 C         -10.8053   -3.2165    2.1270 C.ar    1  LIG1       -0.0007
     10 C          -1.3103    0.3005   -3.0352 C.ar    1  LIG1       -0.0428
     11 C          -2.1259   -0.7811   -2.6784 C.ar    1  LIG1       -0.0243
     12 C         -10.1369   -3.9524    1.1461 C.ar    1  LIG1        0.0379
     13 C         -12.6290   -4.8048    1.9844 C.ar    1  LIG1        0.0413
     14 C          -8.8215   -2.2151    1.7133 C.ar    1  LIG1        0.0945
     15 C          -7.6413   -1.3128    1.7088 C.2     1  LIG1        0.2576
     16 C          -5.2449   -0.3489   -0.6854 C.2     1  LIG1        0.2322
     17 C          -2.1074    1.5630   -3.1305 C.3     1  LIG1       -0.0254
     18 C          -3.5379    1.0077   -3.2449 C.3     1  LIG1       -0.0261
     19 C          -3.5516   -0.3489   -2.5155 C.3     1  LIG1        0.0512
     20 C          -5.4034   -0.8866    0.7260 C.3     1  LIG1        0.0887
     21 C          -2.8082    0.0667   -0.2026 C.3     1  LIG1        0.0380
     22 C          -3.0617    1.3863    0.5032 C.3     1  LIG1        0.0589
     23 N          -8.9355   -3.3213    0.9146 N.ar    1  LIG1       -0.3101
     24 N          -6.6166   -1.6459    0.8284 N.am    1  LIG1       -0.3013
     25 N          -3.9106   -0.2157   -1.1288 N.am    1  LIG1       -0.2910
     26 O          -7.6164   -0.3536    2.4755 O.2     1  LIG1       -0.2704
     27 O          -6.2331   -0.0619   -1.3664 O.2     1  LIG1       -0.2756
     28 O          -2.0091    1.6385    1.4253 O.3     1  LIG1       -0.3947
     29 CL        -14.1824   -5.3444    2.4985 Cl      1  LIG1       -0.0843
     30 H           1.6664   -1.2858   -3.1683 H       1  LIG1        0.0623
     31 H           0.2249   -3.2024   -2.5464 H       1  LIG1        0.0623
     32 H           0.6889    0.9798   -3.4719 H       1  LIG1        0.0625
     33 H          -2.2186   -2.8861   -2.2163 H       1  LIG1        0.0626
     34 H         -10.1411   -5.6642   -0.1923 H       1  LIG1        0.0643
     35 H         -12.3745   -6.4149    0.5692 H       1  LIG1        0.0639
     36 H         -12.6126   -3.0940    3.3163 H       1  LIG1        0.0645
     37 H         -10.1748   -1.3537    3.2055 H       1  LIG1        0.0651
     38 H          -1.9848    2.1561   -2.2185 H       1  LIG1        0.0317
     39 H          -1.8414    2.1614   -4.0064 H       1  LIG1        0.0317
     40 H          -4.2850    1.7147   -2.8685 H       1  LIG1        0.0292
     41 H          -3.7587    0.8388   -4.3085 H       1  LIG1        0.0292
     42 H          -4.2528   -1.0423   -2.9903 H       1  LIG1        0.0557
     43 H          -4.5739   -1.5539    0.9735 H       1  LIG1        0.0567
     44 H          -5.4685   -0.0634    1.4422 H       1  LIG1        0.0567
     45 H          -1.8768    0.0965   -0.7770 H       1  LIG1        0.0493
     46 H          -2.7553   -0.7497    0.5238 H       1  LIG1        0.0493
     47 H          -3.9991    1.3363    1.0659 H       1  LIG1        0.0580
     48 H          -3.1153    2.2185   -0.2063 H       1  LIG1        0.0580
     49 H          -8.2403   -3.6328    0.2503 H       1  LIG1        0.1529
     50 H          -6.6899   -2.4959    0.2705 H       1  LIG1        0.1503
     51 H          -2.2092    2.4869    1.8526 H       1  LIG1        0.2101
@<TRIPOS>BOND
     1     1     2   ar
     2     1     3   ar
     3     2     4   ar
     4     3    10   ar
     5     4    11   ar
     6     5     6   ar
     7     5    12   ar
     8     6    13   ar
     9     7     9   ar
    10     7    13   ar
    11     8     9   ar
    12     8    14   ar
    13     9    12   ar
    14    10    11   ar
    15    10    17    1
    16    11    19    1
    17    12    23   ar
    18    13    29    1
    19    14    15    1
    20    14    23   ar
    21    15    24   am
    22    15    26    2
    23    16    20    1
    24    16    25   am
    25    16    27    2
    26    17    18    1
    27    18    19    1
    28    19    25    1
    29    20    24    1
    30    21    22    1
    31    21    25    1
    32    22    28    1
    33     1    30    1
    34     2    31    1
    35     3    32    1
    36     4    33    1
    37     5    34    1
    38     6    35    1
    39     7    36    1
    40     8    37    1
    41    17    38    1
    42    17    39    1
    43    18    40    1
    44    18    41    1
    45    19    42    1
    46    20    43    1
    47    20    44    1
    48    21    45    1
    49    21    46    1
    50    22    47    1
    51    22    48    1
    52    23    49    1
    53    24    50    1
    54    28    51    1
