@<TRIPOS>MOLECULE
ChEBML895104
 36 38 0 0 0
SMALL
USER_CHARGES

@<TRIPOS>ATOM
      1 C          -2.1592   -0.6744   -1.8661 C.ar    1  LIG1       -0.0378
      2 C          -4.0560    0.8181   -1.9749 C.ar    1  LIG1       -0.0378
      3 C          -1.6422   -0.1022   -3.0283 C.ar    1  LIG1       -0.0245
      4 C          -3.5389    1.3904   -3.1372 C.ar    1  LIG1       -0.0245
      5 C         -10.1394   -1.9800    2.1949 C.ar    1  LIG1       -0.0380
      6 C         -10.9741   -3.0533    1.8246 C.ar    1  LIG1       -0.0368
      7 C          -3.3661   -0.2142   -1.3393 C.ar    1  LIG1        0.0327
      8 C          -2.3321    0.9302   -3.6638 C.ar    1  LIG1        0.1229
      9 C          -8.8229   -2.2478    1.8536 C.ar    1  LIG1        0.0847
     10 C         -10.2791   -4.0706    1.2308 C.ar    1  LIG1       -0.0067
     11 C          -7.6653   -1.4361    2.0518 C.2     1  LIG1        0.3000
     12 C          -5.0695   -0.4609    0.4944 C.2     1  LIG1        0.2427
     13 C         -12.4205   -3.3686    1.9090 C.3     1  LIG1       -0.0267
     14 C         -11.1207   -5.2195    0.8245 C.3     1  LIG1       -0.0209
     15 C         -12.4447   -4.8964    1.5847 C.3     1  LIG1       -0.0446
     16 C          -5.2831   -1.3145    1.7256 C.3     1  LIG1        0.1336
     17 N          -3.8909   -0.7948   -0.1604 N.am    1  LIG1       -0.2834
     18 O          -7.6547   -0.3037    2.5890 O.2     1  LIG1       -0.2600
     19 O          -5.8846    0.4036    0.1870 O.2     1  LIG1       -0.2746
     20 O          -6.5141   -2.0314    1.5829 O.3     1  LIG1       -0.3019
     21 F          -1.8352    1.4806   -4.7795 F       1  LIG1       -0.2069
     22 S          -8.6364   -3.7914    1.0926 S.2     1  LIG1       -0.0879
     23 H          -1.6131   -1.4786   -1.3796 H       1  LIG1        0.0643
     24 H          -4.9985    1.1831   -1.5748 H       1  LIG1        0.0643
     25 H          -0.7031   -0.4607   -3.4391 H       1  LIG1        0.0654
     26 H          -4.0751    2.1951   -3.6316 H       1  LIG1        0.0654
     27 H         -10.4653   -1.0684    2.6791 H       1  LIG1        0.0640
     28 H         -12.8425   -3.1672    2.8973 H       1  LIG1        0.0316
     29 H         -12.9799   -2.8082    1.1525 H       1  LIG1        0.0316
     30 H         -11.2889   -5.2162   -0.2573 H       1  LIG1        0.0322
     31 H         -10.7132   -6.1864    1.1316 H       1  LIG1        0.0322
     32 H         -12.4603   -5.4596    2.5274 H       1  LIG1        0.0273
     33 H         -13.3330   -5.1862    1.0148 H       1  LIG1        0.0273
     34 H          -4.4561   -2.0216    1.8415 H       1  LIG1        0.0675
     35 H          -5.3323   -0.6907    2.6232 H       1  LIG1        0.0675
     36 H          -3.3413   -1.5435    0.2559 H       1  LIG1        0.1557
@<TRIPOS>BOND
     1     1     3   ar
     2     1     7   ar
     3     2     4   ar
     4     2     7   ar
     5     3     8   ar
     6     4     8   ar
     7     5     6   ar
     8     5     9   ar
     9     6    10   ar
    10     6    13    1
    11     7    17    1
    12     8    21    1
    13     9    11    1
    14     9    22   ar
    15    10    14    1
    16    10    22   ar
    17    11    18    2
    18    11    20    1
    19    12    16    1
    20    12    17   am
    21    12    19    2
    22    13    15    1
    23    14    15    1
    24    16    20    1
    25     1    23    1
    26     2    24    1
    27     3    25    1
    28     4    26    1
    29     5    27    1
    30    13    28    1
    31    13    29    1
    32    14    30    1
    33    14    31    1
    34    15    32    1
    35    15    33    1
    36    16    34    1
    37    16    35    1
    38    17    36    1
