@<TRIPOS>MOLECULE
ChEBML716785
 55 58 0 0 0
SMALL
USER_CHARGES

@<TRIPOS>ATOM
      1 C         -12.3823   -3.1639    1.6649 C.ar    1  LIG1       -0.0601
      2 C          -2.0234    0.8799   -3.3265 C.ar    1  LIG1       -0.0431
      3 C         -12.8310   -4.4086    1.2234 C.ar    1  LIG1       -0.0584
      4 C          -1.8407   -0.4667   -3.0326 C.ar    1  LIG1       -0.0449
      5 C         -11.0237   -2.8525    1.6096 C.ar    1  LIG1       -0.0407
      6 C         -10.5627   -5.0307    0.6714 C.ar    1  LIG1       -0.0370
      7 C          -3.1105    1.5257   -2.7601 C.ar    1  LIG1        0.0291
      8 C          -7.7492   -0.5032    2.7639 C.ar    1  LIG1        0.1175
      9 C          -6.8548   -2.0106    0.7347 C.ar    1  LIG1        0.0173
     10 C         -11.9213   -5.3420    0.7267 C.ar    1  LIG1       -0.0407
     11 C          -2.7382   -1.1173   -2.1931 C.ar    1  LIG1        0.0957
     12 C         -10.1139   -3.7859    1.1129 C.ar    1  LIG1        0.0317
     13 C          -6.1688   -0.8836    1.1602 C.ar    1  LIG1        0.0663
     14 C          -3.7933   -0.3820   -1.6773 C.ar    1  LIG1        0.1325
     15 C          -8.0140   -2.3170    1.4231 C.ar    1  LIG1        0.1286
     16 C          -6.3089   -2.8332   -0.3810 C.3     1  LIG1       -0.0067
     17 C          -4.8478   -0.5239    0.5270 C.3     1  LIG1        0.0557
     18 C          -5.6741   -1.9263   -1.4352 C.3     1  LIG1        0.0175
     19 C         -13.4206   -6.5241   -0.9164 C.3     1  LIG1       -0.0561
     20 C         -13.1137   -7.4560    1.4016 C.3     1  LIG1       -0.0561
     21 C         -11.2905   -7.6368   -0.2789 C.3     1  LIG1       -0.0561
     22 C         -12.4014   -6.6728    0.2555 C.3     1  LIG1       -0.0131
     23 C          -2.5387   -2.5613   -1.8803 C.3     1  LIG1        0.4193
     24 N          -4.0034    0.9273   -1.9401 N.ar    1  LIG1       -0.2408
     25 N          -6.5995   -0.1100    2.1825 N.ar    1  LIG1       -0.2392
     26 N          -8.4934   -1.5774    2.4431 N.ar    1  LIG1       -0.2211
     27 N          -4.6798   -1.0193   -0.8484 N.pl3   1  LIG1       -0.3090
     28 N          -8.7456   -3.4720    1.0569 N.pl3   1  LIG1       -0.2993
     29 F          -1.4417   -3.1065   -2.4852 F       1  LIG1       -0.1660
     30 F          -2.3730   -2.8149   -0.5483 F       1  LIG1       -0.1660
     31 F          -3.5936   -3.3344   -2.2713 F       1  LIG1       -0.1660
     32 H         -13.0909   -2.4369    2.0515 H       1  LIG1        0.0623
     33 H          -1.3361    1.4074   -3.9779 H       1  LIG1        0.0639
     34 H         -13.8916   -4.6427    1.2701 H       1  LIG1        0.0626
     35 H          -0.9969   -0.9997   -3.4622 H       1  LIG1        0.0631
     36 H         -10.6849   -1.8795    1.9559 H       1  LIG1        0.0642
     37 H          -9.8547   -5.7594    0.2837 H       1  LIG1        0.0645
     38 H          -3.2984    2.5760   -2.9582 H       1  LIG1        0.0840
     39 H          -8.1116    0.1096    3.5802 H       1  LIG1        0.1063
     40 H          -5.5613   -3.5266    0.0236 H       1  LIG1        0.0334
     41 H          -7.0859   -3.4305   -0.8699 H       1  LIG1        0.0334
     42 H          -4.7556    0.5701    0.5355 H       1  LIG1        0.0536
     43 H          -4.0421   -0.9302    1.1501 H       1  LIG1        0.0536
     44 H          -5.2033   -2.5537   -2.2023 H       1  LIG1        0.0472
     45 H          -6.4494   -1.3282   -1.9321 H       1  LIG1        0.0472
     46 H         -13.7897   -7.4896   -1.2821 H       1  LIG1        0.0239
     47 H         -14.2970   -5.9402   -0.6144 H       1  LIG1        0.0239
     48 H         -12.9538   -6.0038   -1.7613 H       1  LIG1        0.0239
     49 H         -13.4679   -8.4345    1.0592 H       1  LIG1        0.0239
     50 H         -12.4591   -7.6358    2.2625 H       1  LIG1        0.0239
     51 H         -13.9868   -6.8962    1.7576 H       1  LIG1        0.0239
     52 H         -11.6924   -8.6009   -0.6132 H       1  LIG1        0.0239
     53 H         -10.7671   -7.1929   -1.1339 H       1  LIG1        0.0239
     54 H         -10.5507   -7.8498    0.5015 H       1  LIG1        0.0239
     55 H          -8.1648   -4.2133    0.6814 H       1  LIG1        0.1543
@<TRIPOS>BOND
     1     1     3   ar
     2     1     5   ar
     3     2     4   ar
     4     2     7   ar
     5     3    10   ar
     6     4    11   ar
     7     5    12   ar
     8     6    10   ar
     9     6    12   ar
    10     7    24   ar
    11     8    25   ar
    12     8    26   ar
    13     9    13   ar
    14     9    15   ar
    15     9    16    1
    16    10    22    1
    17    11    14   ar
    18    11    23    1
    19    12    28    1
    20    13    17    1
    21    13    25   ar
    22    14    24   ar
    23    14    27    1
    24    15    26   ar
    25    15    28    1
    26    16    18    1
    27    17    27    1
    28    18    27    1
    29    19    22    1
    30    20    22    1
    31    21    22    1
    32    23    29    1
    33    23    30    1
    34    23    31    1
    35     1    32    1
    36     2    33    1
    37     3    34    1
    38     4    35    1
    39     5    36    1
    40     6    37    1
    41     7    38    1
    42     8    39    1
    43    16    40    1
    44    16    41    1
    45    17    42    1
    46    17    43    1
    47    18    44    1
    48    18    45    1
    49    19    46    1
    50    19    47    1
    51    19    48    1
    52    20    49    1
    53    20    50    1
    54    20    51    1
    55    21    52    1
    56    21    53    1
    57    21    54    1
    58    28    55    1
