@<TRIPOS>MOLECULE
ChEBML163227
 38 40 0 0 0
SMALL
USER_CHARGES

@<TRIPOS>ATOM
      1 CZ         -1.8199    1.0588   -2.5767 C.ar    2  PHE2        0.0000
      2 CE1        -3.0299    1.7505   -2.5232 C.ar    2  PHE2        0.0000
      3 CE2        -1.7829   -0.3054   -2.2880 C.ar    2  PHE2        0.0000
      4 CD1        -4.2030    1.0781   -2.1809 C.ar    2  PHE2        0.0000
      5 CD2        -2.9561   -0.9777   -1.9457 C.ar    2  PHE2        0.0000
      6 C         -11.2873   -4.7784    0.4090 C.ar    1  UNK1        0.0000
      7 C         -12.4898   -5.1340    1.0265 C.ar    1  UNK1        0.0000
      8 C         -12.1965   -3.4161    2.7176 C.ar    1  UNK1        0.0000
      9 C          -9.9970   -2.0515    2.3951 C.ar    1  UNK1        0.0000
     10 C         -10.9809   -3.0400    2.1125 C.ar    1  UNK1        0.0000
     11 CG         -4.1663   -0.2861   -1.8922 C.ar    2  PHE2        0.0000
     12 C         -10.5552   -3.7283    0.9745 C.ar    1  UNK1        0.0000
     13 C         -12.9394   -4.4647    2.1631 C.ar    1  UNK1        0.0000
     14 C          -9.0112   -2.1572    1.4412 C.ar    1  UNK1        0.0000
     15 C          -7.8187   -1.3815    1.3088 C.2     1  UNK1        0.0000
     16 C          -4.7014   -1.7667    0.8625 C.2     2  PHE2        0.0000
     17 CB         -5.4293   -1.0107   -1.5232 C.3     2  PHE2        0.0000
     18 CA         -5.7002   -1.0031   -0.0179 C.3     2  PHE2        0.0000
     19 N          -9.3569   -3.1711    0.5887 N.ar    1  UNK1        0.0000
     20 N          -6.9513   -1.6807    0.2362 N.am    2  PHE2        0.0000
     21 O          -4.5116   -2.9695    0.5193 O.co2   2  PHE2       -0.5000
     22 O          -7.5318   -0.4728    2.1285 O.2     1  UNK1        0.0000
     23 OXT        -4.1851   -1.1165    1.8137 O.co2   2  PHE2       -0.5000
     24 CL        -14.4278   -4.9311    2.8949 Cl      1  UNK1        0.0000
     25 HZ         -0.9067    1.5822   -2.8446 H       2  PHE2        0.0000
     26 HE1        -3.0590    2.8125   -2.7490 H       2  PHE2        0.0000
     27 HE2        -0.8412   -0.8445   -2.3306 H       2  PHE2        0.0000
     28 HD1        -5.1414    1.6253   -2.1415 H       2  PHE2        0.0000
     29 HD2        -2.9178   -2.0407   -1.7222 H       2  PHE2        0.0000
     30 H         -10.9380   -5.3007   -0.4754 H       1  UNK1        0.0000
     31 H         -13.0720   -5.9486    0.6009 H       1  UNK1        0.0000
     32 H         -12.5456   -2.8935    3.6043 H       1  UNK1        0.0000
     33 H         -10.0127   -1.3404    3.2105 H       1  UNK1        0.0000
     34 HB1        -6.2712   -0.5381   -2.0486 H       2  PHE2        0.0000
     35 HB2        -5.3981   -2.0401   -1.9050 H       2  PHE2        0.0000
     36 HA         -5.7975    0.0260    0.3495 H       2  PHE2        0.0000
     37 H          -8.8135   -3.4703   -0.2095 H       1  UNK1        0.0000
     38 H          -7.1839   -2.4621   -0.3680 H       2  PHE2        0.0000
@<TRIPOS>BOND
     1     1     2   ar
     2     1     3   ar
     3     2     4   ar
     4     3     5   ar
     5     4    11   ar
     6     5    11   ar
     7     6     7   ar
     8     6    12   ar
     9     7    13   ar
    10     8    10   ar
    11     8    13   ar
    12     9    10   ar
    13     9    14   ar
    14    10    12   ar
    15    11    17    1
    16    12    19   ar
    17    13    24    1
    18    14    15    1
    19    14    19   ar
    20    15    20   am
    21    15    22    2
    22    16    18    1
    23    16    21   ar
    24    16    23   ar
    25    17    18    1
    26    18    20    1
    27     1    25    1
    28     2    26    1
    29     3    27    1
    30     4    28    1
    31     5    29    1
    32     6    30    1
    33     7    31    1
    34     8    32    1
    35     9    33    1
    36    17    34    1
    37    17    35    1
    38    18    36    1
    39    19    37    1
    40    20    38    1
