@<TRIPOS>MOLECULE
ChEBML79781
 32 33 0 0 0
SMALL
USER_CHARGES

@<TRIPOS>ATOM
      1 C         -10.1031   -2.1546    2.1940 C.ar    1  LIG1       -0.0338
      2 C         -12.1839   -3.5742    1.9431 C.ar    1  LIG1       -0.0237
      3 C         -10.8406   -3.2484    1.7289 C.ar    1  LIG1       -0.0011
      4 C          -8.8019   -2.2570    1.7205 C.ar    1  LIG1        0.0759
      5 C         -10.1589   -4.1126    0.9644 C.ar    1  LIG1        0.0586
      6 C         -12.4698   -4.7590    1.2780 C.ar    1  LIG1        0.0929
      7 C          -7.6979   -1.3779    1.9342 C.2     1  LIG1        0.2498
      8 C          -4.8673    1.0584   -2.1327 C.3     1  LIG1        0.0071
      9 C          -5.2504   -0.9338    1.4765 C.3     1  LIG1        0.0269
     10 C          -5.1083    0.1293    0.4005 C.3     1  LIG1        0.0337
     11 N         -13.7579   -6.7732    2.4565 N.3     1  LIG1       -0.3031
     12 N          -6.4623   -1.7086    1.3359 N.am    1  LIG1       -0.3094
     13 O          -7.8051   -0.3482    2.6485 O.2     1  LIG1       -0.2712
     14 O          -3.6645   -1.2330   -1.3909 O.2     1  LIG1       -0.4968
     15 O         -15.0699   -4.8587    1.3342 O.2     1  LIG1       -0.4761
     16 O         -13.8192   -6.5056   -0.1050 O.2     1  LIG1       -0.4761
     17 S          -8.5612   -3.6749    0.7411 S.2     1  LIG1       -0.0765
     18 S         -11.0878   -5.3984    0.4366 S.2     1  LIG1       -0.0655
     19 S          -5.0185   -0.6071   -1.2626 S.O     1  LIG1       -0.2683
     20 S         -13.9277   -5.7292    1.1175 S.O2    1  LIG1       -0.1641
     21 H         -10.4621   -1.3481    2.8204 H       1  LIG1        0.0643
     22 H         -12.9057   -3.0162    2.5250 H       1  LIG1        0.0655
     23 H          -4.7930    0.8963   -3.2102 H       1  LIG1        0.0428
     24 H          -3.9715    1.5681   -1.7715 H       1  LIG1        0.0428
     25 H          -5.7513    1.6585   -1.9075 H       1  LIG1        0.0428
     26 H          -5.2937   -0.4622    2.4633 H       1  LIG1        0.0482
     27 H          -4.4077   -1.6328    1.4677 H       1  LIG1        0.0482
     28 H          -4.1795    0.6890    0.5467 H       1  LIG1        0.0481
     29 H          -5.9466    0.8331    0.4120 H       1  LIG1        0.0481
     30 H         -14.3881   -6.6347    3.2558 H       1  LIG1        0.1602
     31 H         -13.5322   -7.7581    2.2715 H       1  LIG1        0.1602
     32 H          -6.3960   -2.5793    0.8188 H       1  LIG1        0.1497
@<TRIPOS>BOND
     1     1     3   ar
     2     1     4   ar
     3     2     3   ar
     4     2     6   ar
     5     3     5   ar
     6     4     7    1
     7     4    17   ar
     8     5    17   ar
     9     5    18   ar
    10     6    18   ar
    11     6    20    1
    12     7    12   am
    13     7    13    2
    14     8    19    1
    15     9    10    1
    16     9    12    1
    17    10    19    1
    18    11    20    1
    19    14    19    2
    20    15    20    2
    21    16    20    2
    22     1    21    1
    23     2    22    1
    24     8    23    1
    25     8    24    1
    26     8    25    1
    27     9    26    1
    28     9    27    1
    29    10    28    1
    30    10    29    1
    31    11    30    1
    32    11    31    1
    33    12    32    1
