@<TRIPOS>MOLECULE
ChEBML289643
 38 40 0 0 0
SMALL
USER_CHARGES

@<TRIPOS>ATOM
      1 C         -12.0324   -5.2927    1.0307 C.ar    1  LIG1       -0.0616
      2 C         -12.5710   -4.6354    2.1328 C.ar    1  LIG1       -0.0616
      3 C          -2.6957    1.6360   -3.1205 C.ar    1  LIG1       -0.0613
      4 C          -1.5603    0.8307   -3.2095 C.ar    1  LIG1       -0.0596
      5 C         -10.8126   -4.8766    0.4965 C.ar    1  LIG1       -0.0543
      6 C         -11.8918   -3.5593    2.7049 C.ar    1  LIG1       -0.0543
      7 C          -3.8819    1.1143   -2.6040 C.ar    1  LIG1       -0.0470
      8 C          -1.6109   -0.4962   -2.7821 C.ar    1  LIG1       -0.0313
      9 C          -8.8865   -3.3628    0.5348 C.ar    1  LIG1       -0.0391
     10 C          -9.9658   -2.0454    2.7432 C.ar    1  LIG1       -0.0234
     11 C         -10.1153   -3.7952    1.0595 C.ar    1  LIG1       -0.0174
     12 C         -10.6631   -3.1268    2.1802 C.ar    1  LIG1       -0.0157
     13 C          -3.9325   -0.2125   -2.1766 C.ar    1  LIG1        0.0685
     14 C          -8.2074   -2.2867    1.1068 C.ar    1  LIG1        0.0692
     15 C          -2.7970   -1.0177   -2.2657 C.ar    1  LIG1        0.0839
     16 C          -8.7460   -1.6292    2.2090 C.ar    1  LIG1        0.0845
     17 C          -5.2064   -0.7478   -1.6297 C.2     1  LIG1        0.2618
     18 C          -6.9354   -1.8672    0.5350 C.2     1  LIG1        0.2619
     19 N          -5.6952   -0.1028   -0.5098 N.am    1  LIG1       -0.2303
     20 N          -6.8618   -0.5584    0.0580 N.am    1  LIG1       -0.2303
     21 O          -5.7363   -1.7139   -2.1729 O.2     1  LIG1       -0.2701
     22 O          -5.9792   -2.6592    0.4714 O.2     1  LIG1       -0.2701
     23 O          -2.8262   -2.3159   -1.8515 O.3     1  LIG1       -0.3601
     24 O          -8.0972   -0.5757    2.7809 O.3     1  LIG1       -0.3600
     25 H         -12.5613   -6.1307    0.5861 H       1  LIG1        0.0623
     26 H         -13.5209   -4.9599    2.5479 H       1  LIG1        0.0623
     27 H          -2.6559    2.6692   -3.4534 H       1  LIG1        0.0623
     28 H          -0.6373    1.2373   -3.6123 H       1  LIG1        0.0623
     29 H         -10.4101   -5.4054   -0.3650 H       1  LIG1        0.0629
     30 H         -12.3317   -3.0606    3.5661 H       1  LIG1        0.0629
     31 H          -4.7604    1.7513   -2.5389 H       1  LIG1        0.0632
     32 H          -0.7226   -1.1180   -2.8541 H       1  LIG1        0.0650
     33 H          -8.4561   -3.8699   -0.3274 H       1  LIG1        0.0638
     34 H         -10.3739   -1.5207    3.6055 H       1  LIG1        0.0657
     35 H          -5.2387    0.6692   -0.0366 H       1  LIG1        0.1743
     36 H          -7.6408    0.0908    0.0631 H       1  LIG1        0.1743
     37 H          -1.9578   -2.7280   -1.9815 H       1  LIG1        0.2182
     38 H          -7.2684   -0.3978    2.3097 H       1  LIG1        0.2182
@<TRIPOS>BOND
     1     1     2   ar
     2     1     5   ar
     3     2     6   ar
     4     3     4   ar
     5     3     7   ar
     6     4     8   ar
     7     5    11   ar
     8     6    12   ar
     9     7    13   ar
    10     8    15   ar
    11     9    11   ar
    12     9    14   ar
    13    10    12   ar
    14    10    16   ar
    15    11    12   ar
    16    13    15   ar
    17    13    17    1
    18    14    16   ar
    19    14    18    1
    20    15    23    1
    21    16    24    1
    22    17    19   am
    23    17    21    2
    24    18    20   am
    25    18    22    2
    26    19    20    1
    27     1    25    1
    28     2    26    1
    29     3    27    1
    30     4    28    1
    31     5    29    1
    32     6    30    1
    33     7    31    1
    34     8    32    1
    35     9    33    1
    36    10    34    1
    37    19    35    1
    38    20    36    1
    39    23    37    1
    40    24    38    1
