@<TRIPOS>MOLECULE
ChEBML1799
 36 39 0 0 0
SMALL
USER_CHARGES

@<TRIPOS>ATOM
      1 C         -12.6384   -4.5579    1.2088 C.ar    1  LIG1       -0.0615
      2 C         -11.7457   -5.5614    0.8376 C.ar    1  LIG1       -0.0603
      3 C          -2.4567   -2.4386   -1.5470 C.ar    1  LIG1       -0.0589
      4 C         -12.1805   -3.2753    1.5316 C.ar    1  LIG1       -0.0530
      5 C          -3.3136   -3.0465   -0.6221 C.ar    1  LIG1       -0.0528
      6 C         -10.3707   -5.3168    0.7772 C.ar    1  LIG1       -0.0402
      7 C          -2.6921   -1.1386   -1.9898 C.ar    1  LIG1       -0.0298
      8 C         -10.0032   -1.8528    1.7316 C.ar    1  LIG1       -0.0276
      9 C          -5.4727   -2.6204    0.7782 C.ar    1  LIG1       -0.0275
     10 C         -10.7987   -3.0051    1.4778 C.ar    1  LIG1       -0.0022
     11 C          -4.4248   -2.3274   -0.1389 C.ar    1  LIG1        0.0004
     12 C          -9.9274   -4.0300    1.1026 C.ar    1  LIG1        0.0378
     13 C          -4.6358   -1.0263   -0.6003 C.ar    1  LIG1        0.0685
     14 C          -3.7878   -0.4059   -1.5245 C.ar    1  LIG1        0.0965
     15 C          -8.6889   -2.1941    1.5099 C.ar    1  LIG1        0.0811
     16 C          -6.2843   -1.5120    0.8546 C.ar    1  LIG1        0.0811
     17 C          -7.4618   -1.3277    1.6425 C.2     1  LIG1        0.2206
     18 C          -4.8145    1.0158   -3.1309 C.3     1  LIG1        0.0423
     19 N          -8.6533   -3.5092    1.1308 N.ar    1  LIG1       -0.3112
     20 N          -5.7716   -0.5559    0.0195 N.ar    1  LIG1       -0.3090
     21 O          -7.5346   -0.4174    2.5006 O.2     1  LIG1       -0.2856
     22 O          -4.0046    0.8679   -1.9685 O.3     1  LIG1       -0.3473
     23 H         -13.7033   -4.7720    1.2476 H       1  LIG1        0.0623
     24 H         -12.1231   -6.5503    0.5913 H       1  LIG1        0.0623
     25 H          -1.5987   -2.9894   -1.9235 H       1  LIG1        0.0624
     26 H         -12.8875   -2.5020    1.8189 H       1  LIG1        0.0629
     27 H          -3.1186   -4.0607   -0.2861 H       1  LIG1        0.0629
     28 H          -9.6758   -6.0983    0.4886 H       1  LIG1        0.0642
     29 H          -2.0096   -0.6904   -2.7082 H       1  LIG1        0.0651
     30 H         -10.3590   -0.8796    2.0430 H       1  LIG1        0.0651
     31 H          -5.6138   -3.5449    1.3222 H       1  LIG1        0.0651
     32 H          -4.9083    2.0762   -3.3779 H       1  LIG1        0.0535
     33 H          -5.8017    0.5852   -2.9456 H       1  LIG1        0.0535
     34 H          -4.3405    0.4906   -3.9636 H       1  LIG1        0.0535
     35 H          -7.8149   -4.0264    0.9045 H       1  LIG1        0.1529
     36 H          -6.1669    0.3632   -0.1243 H       1  LIG1        0.1530
@<TRIPOS>BOND
     1     1     2   ar
     2     1     4   ar
     3     2     6   ar
     4     3     5   ar
     5     3     7   ar
     6     4    10   ar
     7     5    11   ar
     8     6    12   ar
     9     7    14   ar
    10     8    10   ar
    11     8    15   ar
    12     9    11   ar
    13     9    16   ar
    14    10    12   ar
    15    11    13   ar
    16    12    19   ar
    17    13    14   ar
    18    13    20   ar
    19    14    22    1
    20    15    17    1
    21    15    19   ar
    22    16    17    1
    23    16    20   ar
    24    17    21    2
    25    18    22    1
    26     1    23    1
    27     2    24    1
    28     3    25    1
    29     4    26    1
    30     5    27    1
    31     6    28    1
    32     7    29    1
    33     8    30    1
    34     9    31    1
    35    18    32    1
    36    18    33    1
    37    18    34    1
    38    19    35    1
    39    20    36    1
