@<TRIPOS>MOLECULE
ChEBML459957
 51 55 0 0 0
SMALL
USER_CHARGES

@<TRIPOS>ATOM
      1 C          -1.8845    2.7018   -7.4710 C.ar    1  LIG1       -0.0622
      2 C          -0.9777    1.8208   -6.9095 C.ar    1  LIG1       -0.0616
      3 C          -3.0511    3.0229   -6.8004 C.ar    1  LIG1       -0.0616
      4 C         -12.3906   -4.6866    1.9847 C.ar    1  LIG1       -0.0600
      5 C         -11.9070   -5.3797    0.8839 C.ar    1  LIG1       -0.0602
      6 C          -1.2324    1.2570   -5.6760 C.ar    1  LIG1       -0.0543
      7 C          -3.3191    2.4611   -5.5687 C.ar    1  LIG1       -0.0543
      8 C          -1.7756    0.0866   -3.0893 C.ar    1  LIG1       -0.0505
      9 C         -11.7133   -3.6100    2.4828 C.ar    1  LIG1       -0.0344
     10 C         -10.7333   -4.9913    0.2741 C.ar    1  LIG1       -0.0385
     11 C          -2.0792   -0.4502   -1.8516 C.ar    1  LIG1       -0.0303
     12 C          -3.8631    1.2858   -2.9848 C.ar    1  LIG1        0.0356
     13 C          -2.4064    1.5769   -4.9955 C.ar    1  LIG1       -0.0168
     14 C          -2.6862    0.9740   -3.6701 C.ar    1  LIG1        0.0001
     15 C         -10.5213   -3.1981    1.8810 C.ar    1  LIG1        0.0862
     16 C         -10.0315   -3.8992    0.7663 C.ar    1  LIG1        0.0573
     17 C          -3.2742   -0.0910   -1.2291 C.ar    1  LIG1        0.1256
     18 C          -8.6706   -2.2355    1.2701 C.ar    1  LIG1        0.1020
     19 C          -3.6081   -0.6603    0.0959 C.2     1  LIG1        0.2641
     20 C          -6.3224   -1.8902    1.9888 C.3     1  LIG1       -0.0275
     21 C          -7.1061   -1.0170   -0.2190 C.3     1  LIG1       -0.0275
     22 C          -5.1521   -0.9016    1.9802 C.3     1  LIG1        0.0151
     23 C          -5.9436   -0.0135   -0.2509 C.3     1  LIG1        0.0151
     24 C          -7.5060   -1.2798    1.2347 C.3     1  LIG1        0.0179
     25 N          -4.1189    0.7513   -1.8128 N.ar    1  LIG1       -0.2506
     26 N          -9.6419   -2.1950    2.1349 N.ar    1  LIG1       -0.2357
     27 N          -8.8627   -3.2627    0.3992 N.ar    1  LIG1       -0.3011
     28 N          -4.8556   -0.5318    0.5895 N.am    1  LIG1       -0.2964
     29 O          -2.7561   -1.2392    0.7408 O.2     1  LIG1       -0.2698
     30 H          -1.6808    3.1409   -8.4364 H       1  LIG1        0.0622
     31 H          -0.0684    1.5741   -7.4374 H       1  LIG1        0.0623
     32 H          -3.7554    3.7113   -7.2436 H       1  LIG1        0.0623
     33 H         -13.3115   -5.0019    2.4525 H       1  LIG1        0.0623
     34 H         -12.4539   -6.2294    0.5025 H       1  LIG1        0.0623
     35 H          -0.5236    0.5697   -5.2384 H       1  LIG1        0.0629
     36 H          -4.2321    2.7093   -5.0480 H       1  LIG1        0.0629
     37 H          -0.8574   -0.1732   -3.5949 H       1  LIG1        0.0630
     38 H         -12.0982   -3.0782    3.3403 H       1  LIG1        0.0646
     39 H         -10.3615   -5.5339   -0.5825 H       1  LIG1        0.0643
     40 H          -1.3988   -1.1389   -1.3728 H       1  LIG1        0.0647
     41 H          -4.5722    1.9708   -3.4257 H       1  LIG1        0.0846
     42 H          -6.0194   -2.8169    1.5014 H       1  LIG1        0.0290
     43 H          -6.6151   -2.0987    3.0178 H       1  LIG1        0.0290
     44 H          -6.7958   -1.9520   -0.6856 H       1  LIG1        0.0290
     45 H          -7.9567   -0.6040   -0.7613 H       1  LIG1        0.0290
     46 H          -4.2757   -1.3693    2.4288 H       1  LIG1        0.0470
     47 H          -5.4228   -0.0100    2.5457 H       1  LIG1        0.0470
     48 H          -6.2775    0.9492    0.1364 H       1  LIG1        0.0470
     49 H          -5.5894    0.1053   -1.2749 H       1  LIG1        0.0470
     50 H          -7.7926   -0.3406    1.7078 H       1  LIG1        0.0383
     51 H          -8.2845   -3.5044   -0.3412 H       1  LIG1        0.1540
@<TRIPOS>BOND
     1     1     2   ar
     2     1     3   ar
     3     2     6   ar
     4     3     7   ar
     5     4     5   ar
     6     4     9   ar
     7     5    10   ar
     8     6    13   ar
     9     7    13   ar
    10     8    11   ar
    11     8    14   ar
    12     9    15   ar
    13    10    16   ar
    14    11    17   ar
    15    12    14   ar
    16    12    25   ar
    17    13    14    1
    18    15    16   ar
    19    15    26   ar
    20    16    27   ar
    21    17    19    1
    22    17    25   ar
    23    18    24    1
    24    18    26   ar
    25    18    27   ar
    26    19    28   am
    27    19    29    2
    28    20    22    1
    29    20    24    1
    30    21    23    1
    31    21    24    1
    32    22    28    1
    33    23    28    1
    34     1    30    1
    35     2    31    1
    36     3    32    1
    37     4    33    1
    38     5    34    1
    39     6    35    1
    40     7    36    1
    41     8    37    1
    42     9    38    1
    43    10    39    1
    44    11    40    1
    45    12    41    1
    46    20    42    1
    47    20    43    1
    48    21    44    1
    49    21    45    1
    50    22    46    1
    51    22    47    1
    52    23    48    1
    53    23    49    1
    54    24    50    1
    55    27    51    1
