@<TRIPOS>MOLECULE
ChEBML975269
 47 50 0 0 0
SMALL
USER_CHARGES

@<TRIPOS>ATOM
      1 C          -3.6252    0.7775   -1.9050 C.3     1  LIG1        0.0232
      2 C          -3.4116   -1.4109   -2.8527 C.3     1  LIG1        0.0232
      3 C         -12.0200   -3.5767    1.9005 C.ar    1  LIG1       -0.0489
      4 C         -11.5369   -5.5326    0.6130 C.ar    1  LIG1       -0.0378
      5 C          -3.0829    1.2861   -3.0663 C.3     1  LIG1        0.1685
      6 C          -2.8822   -0.8229   -3.9821 C.3     1  LIG1        0.1685
      7 C         -10.6964   -3.1565    1.7451 C.ar    1  LIG1        0.0128
      8 C         -12.4266   -4.7553    1.3420 C.ar    1  LIG1       -0.0488
      9 C          -9.9378   -1.9899    2.1951 C.ar    1  LIG1       -0.0048
     10 C          -3.8004   -0.6011   -1.7858 C.3     1  LIG1        0.0406
     11 C          -9.7897   -3.9396    1.0076 C.ar    1  LIG1        0.1085
     12 C         -10.2279   -5.1336    0.4436 C.ar    1  LIG1        0.0723
     13 C          -8.6784   -2.1513    1.7131 C.ar    1  LIG1        0.1483
     14 C          -7.5665   -1.2128    1.9208 C.2     1  LIG1        0.2697
     15 C          -4.6368   -0.0373    0.2748 C.3     1  LIG1        0.0274
     16 C          -5.6257   -1.7567   -1.0137 C.3     1  LIG1        0.0274
     17 C          -5.2186   -0.5774    1.5852 C.3     1  LIG1        0.0303
     18 C          -6.2709   -2.4144    0.2159 C.3     1  LIG1        0.0303
     19 C         -13.8526   -5.2117    1.5134 C.3     1  LIG1       -0.0397
     20 C         -10.4500   -0.8413    3.0254 C.3     1  LIG1       -0.0363
     21 N          -2.7319    0.4864   -4.0561 N.3     1  LIG1       -0.2177
     22 N          -4.3437   -1.1545   -0.6303 N.3     1  LIG1       -0.3272
     23 N          -6.4018   -1.3925    1.2669 N.am    1  LIG1       -0.2929
     24 O          -7.6975   -0.2737    2.6830 O.2     1  LIG1       -0.2693
     25 O          -8.6020   -3.3035    1.0148 O.2     1  LIG1       -0.3024
     26 CL         -9.1293   -6.1189   -0.4708 Cl      1  LIG1       -0.0814
     27 H          -3.9105    1.4374   -1.0990 H       1  LIG1        0.0706
     28 H          -3.5272   -2.4832   -2.7966 H       1  LIG1        0.0706
     29 H         -12.7177   -2.9739    2.4628 H       1  LIG1        0.0633
     30 H         -11.8736   -6.4602    0.1741 H       1  LIG1        0.0642
     31 H          -2.9438    2.3523   -3.1674 H       1  LIG1        0.1394
     32 H          -2.5825   -1.4418   -4.8148 H       1  LIG1        0.1394
     33 H          -5.3589    0.6306   -0.1949 H       1  LIG1        0.0485
     34 H          -3.7183    0.5109    0.4840 H       1  LIG1        0.0485
     35 H          -6.2873   -0.9838   -1.4047 H       1  LIG1        0.0485
     36 H          -5.4568   -2.5120   -1.7812 H       1  LIG1        0.0485
     37 H          -5.5076    0.2537    2.2286 H       1  LIG1        0.0486
     38 H          -4.4744   -1.1924    2.0912 H       1  LIG1        0.0486
     39 H          -5.6414   -3.2295    0.5729 H       1  LIG1        0.0486
     40 H          -7.2564   -2.7991   -0.0469 H       1  LIG1        0.0486
     41 H         -14.4591   -4.8238    0.6949 H       1  LIG1        0.0280
     42 H         -13.8886   -6.3011    1.5075 H       1  LIG1        0.0280
     43 H         -14.2416   -4.8404    2.4615 H       1  LIG1        0.0280
     44 H         -10.8374   -0.0626    2.3685 H       1  LIG1        0.0281
     45 H         -11.2465   -1.1935    3.6807 H       1  LIG1        0.0281
     46 H          -9.6362   -0.4370    3.6275 H       1  LIG1        0.0281
     47 H          -2.3530    0.8722   -4.8614 H       1  LIG1        0.4527
@<TRIPOS>BOND
     1     1     5    1
     2     1    10    1
     3     2     6    1
     4     2    10    1
     5     3     7   ar
     6     3     8   ar
     7     4     8   ar
     8     4    12   ar
     9     5    21    1
    10     6    21    1
    11     7     9   ar
    12     7    11   ar
    13     8    19    1
    14     9    13   ar
    15     9    20    1
    16    10    22    1
    17    11    12   ar
    18    11    25   ar
    19    12    26    1
    20    13    14    1
    21    13    25   ar
    22    14    23   am
    23    14    24    2
    24    15    17    1
    25    15    22    1
    26    16    18    1
    27    16    22    1
    28    17    23    1
    29    18    23    1
    30     1    27    1
    31     2    28    1
    32     3    29    1
    33     4    30    1
    34     5    31    1
    35     6    32    1
    36    15    33    1
    37    15    34    1
    38    16    35    1
    39    16    36    1
    40    17    37    1
    41    17    38    1
    42    18    39    1
    43    18    40    1
    44    19    41    1
    45    19    42    1
    46    19    43    1
    47    20    44    1
    48    20    45    1
    49    20    46    1
    50    21    47    1
