@<TRIPOS>MOLECULE
ChEBML300195
 44 46 0 0 0
SMALL
USER_CHARGES

@<TRIPOS>ATOM
      1 C         -10.3427   -5.1744    0.4638 C.ar    1  LIG1       -0.0387
      2 C         -11.6798   -5.5304    0.6621 C.ar    1  LIG1       -0.0416
      3 C         -12.0853   -3.5143    1.9536 C.ar    1  LIG1       -0.0343
      4 C          -9.9603   -2.0183    2.1779 C.ar    1  LIG1       -0.0262
      5 C         -10.7413   -3.1346    1.7670 C.ar    1  LIG1       -0.0007
      6 C          -9.9027   -3.9717    1.0279 C.ar    1  LIG1        0.0379
      7 C         -12.5395   -4.7147    1.3951 C.ar    1  LIG1        0.0413
      8 C          -8.6863   -2.1961    1.6897 C.ar    1  LIG1        0.0945
      9 C          -5.0329   -0.8306   -3.9698 C.2     1  LIG1        0.2014
     10 C          -7.5058   -1.3083    1.8486 C.2     1  LIG1        0.2576
     11 C          -4.6306   -0.6121   -0.0624 C.2     1  LIG1        0.2316
     12 C          -1.9555   -0.5645   -1.9744 C.3     1  LIG1       -0.0170
     13 C          -2.9551   -1.4348   -2.7268 C.3     1  LIG1        0.0157
     14 C          -3.8943    0.7641   -2.4200 C.3     1  LIG1        0.0326
     15 C          -2.8267    0.5308   -1.3547 C.3     1  LIG1        0.0423
     16 C          -2.6538    0.4201    1.1014 C.3     1  LIG1        0.0031
     17 C          -5.0992   -1.0019    1.3284 C.3     1  LIG1        0.0887
     18 N          -8.6615   -3.3769    0.9972 N.ar    1  LIG1       -0.3101
     19 N          -4.0229   -0.5203   -3.0916 N.am    1  LIG1       -0.3025
     20 N          -6.3285   -1.7372    1.2437 N.am    1  LIG1       -0.3013
     21 N          -3.4096    0.0909   -0.1100 N.am    1  LIG1       -0.2989
     22 O          -5.1921   -1.8891   -4.5663 O.2     1  LIG1       -0.2812
     23 O          -7.6153   -0.2762    2.5055 O.2     1  LIG1       -0.2704
     24 O          -5.2956   -0.9077   -1.0588 O.2     1  LIG1       -0.2756
     25 CL        -14.1816   -5.1869    1.6166 Cl      1  LIG1       -0.0843
     26 H          -9.6743   -5.8107   -0.1066 H       1  LIG1        0.0643
     27 H         -12.0393   -6.4625    0.2310 H       1  LIG1        0.0639
     28 H         -12.7545   -2.8774    2.5261 H       1  LIG1        0.0645
     29 H         -10.2984   -1.1766    2.7677 H       1  LIG1        0.0651
     30 H          -5.7335    0.0109   -4.1002 H       1  LIG1        0.1274
     31 H          -1.3729   -1.1362   -1.2457 H       1  LIG1        0.0302
     32 H          -1.2590   -0.1115   -2.6910 H       1  LIG1        0.0302
     33 H          -2.5325   -1.9106   -3.6165 H       1  LIG1        0.0470
     34 H          -3.3840   -2.2101   -2.0824 H       1  LIG1        0.0470
     35 H          -4.8633    1.0913   -2.0301 H       1  LIG1        0.0489
     36 H          -3.5537    1.4851   -3.1716 H       1  LIG1        0.0489
     37 H          -2.2609    1.4409   -1.1351 H       1  LIG1        0.0523
     38 H          -1.9514   -0.3839    1.3361 H       1  LIG1        0.0433
     39 H          -3.3341    0.5513    1.9473 H       1  LIG1        0.0433
     40 H          -2.0922    1.3468    0.9562 H       1  LIG1        0.0433
     41 H          -4.3607   -1.6472    1.8110 H       1  LIG1        0.0567
     42 H          -5.2900   -0.1098    1.9302 H       1  LIG1        0.0567
     43 H          -7.8510   -3.7600    0.5300 H       1  LIG1        0.1529
     44 H          -6.3071   -2.6392    0.7687 H       1  LIG1        0.1503
@<TRIPOS>BOND
     1     1     2   ar
     2     1     6   ar
     3     2     7   ar
     4     3     5   ar
     5     3     7   ar
     6     4     5   ar
     7     4     8   ar
     8     5     6   ar
     9     6    18   ar
    10     7    25    1
    11     8    10    1
    12     8    18   ar
    13     9    19   am
    14     9    22    2
    15    10    20   am
    16    10    23    2
    17    11    17    1
    18    11    21   am
    19    11    24    2
    20    12    13    1
    21    12    15    1
    22    13    19    1
    23    14    15    1
    24    14    19    1
    25    15    21    1
    26    16    21    1
    27    17    20    1
    28     1    26    1
    29     2    27    1
    30     3    28    1
    31     4    29    1
    32     9    30    1
    33    12    31    1
    34    12    32    1
    35    13    33    1
    36    13    34    1
    37    14    35    1
    38    14    36    1
    39    15    37    1
    40    16    38    1
    41    16    39    1
    42    16    40    1
    43    17    41    1
    44    17    42    1
    45    18    43    1
    46    20    44    1
