@<TRIPOS>MOLECULE
ChEBML209023
 42 45 0 0 0
SMALL
USER_CHARGES

@<TRIPOS>ATOM
      1 C         -12.2695   -4.8609    0.9148 C.ar    1  LIG1       -0.0600
      2 C         -11.3521   -5.4625    0.0503 C.ar    1  LIG1       -0.0602
      3 C          -1.4520    0.0052   -3.2326 C.ar    1  LIG1       -0.0407
      4 C         -11.9014   -3.7695    1.7117 C.ar    1  LIG1       -0.0344
      5 C         -10.0367   -4.9973   -0.0501 C.ar    1  LIG1       -0.0385
      6 C          -2.6430    0.6781   -3.4817 C.ar    1  LIG1       -0.0212
      7 C          -1.3670   -0.7573   -2.0789 C.ar    1  LIG1        0.0293
      8 C         -10.5839   -3.2893    1.6237 C.ar    1  LIG1        0.0864
      9 C          -9.6924   -3.9095    0.7528 C.ar    1  LIG1        0.0575
     10 C          -3.6977    0.5694   -2.5820 C.ar    1  LIG1        0.1629
     11 C          -3.5122   -0.2186   -1.4575 C.ar    1  LIG1        0.1564
     12 C          -8.7423   -2.2292    1.8338 C.ar    1  LIG1        0.1434
     13 C          -4.1785   -0.5296    0.8301 C.3     1  LIG1        0.0524
     14 C          -5.7006   -1.1186   -1.0492 C.3     1  LIG1        0.0524
     15 C          -5.3803   -0.3725    1.7519 C.3     1  LIG1       -0.0176
     16 C          -6.8992   -0.9651   -0.1214 C.3     1  LIG1       -0.0176
     17 C          -7.6531   -1.2784    2.2349 C.3     1  LIG1        0.0233
     18 N          -2.3698   -0.8870   -1.1817 N.ar    1  LIG1       -0.2383
     19 N          -9.9759   -2.2478    2.2863 N.ar    1  LIG1       -0.2303
     20 N          -8.5226   -3.2108    0.9080 N.ar    1  LIG1       -0.2969
     21 N          -4.5689   -0.3187   -0.5702 N.pl3   1  LIG1       -0.3030
     22 N          -6.4841   -1.2899    1.2904 N.4     1  LIG1        0.2537
     23 F          -4.8501    1.2128   -2.8085 F       1  LIG1       -0.2031
     24 H         -13.2851   -5.2449    0.9703 H       1  LIG1        0.0623
     25 H         -11.6652   -6.3093   -0.5556 H       1  LIG1        0.0623
     26 H          -0.6166    0.0755   -3.9197 H       1  LIG1        0.0640
     27 H         -12.6224   -3.3089    2.3794 H       1  LIG1        0.0646
     28 H          -9.3236   -5.4623   -0.7213 H       1  LIG1        0.0643
     29 H          -2.7484    1.2860   -4.3751 H       1  LIG1        0.0655
     30 H          -0.4597   -1.3008   -1.8372 H       1  LIG1        0.0840
     31 H          -3.4136    0.1998    1.1240 H       1  LIG1        0.0524
     32 H          -3.7432   -1.5307    0.9473 H       1  LIG1        0.0524
     33 H          -5.4090   -2.1753   -1.1121 H       1  LIG1        0.0524
     34 H          -5.9939   -0.7966   -2.0561 H       1  LIG1        0.0524
     35 H          -5.1210   -0.6531    2.7779 H       1  LIG1        0.0831
     36 H          -5.7730    0.6508    1.7384 H       1  LIG1        0.0831
     37 H          -7.2868    0.0602   -0.1242 H       1  LIG1        0.0831
     38 H          -7.6973   -1.6602   -0.4020 H       1  LIG1        0.0831
     39 H          -8.0204   -0.2471    2.2683 H       1  LIG1        0.0899
     40 H          -7.2587   -1.5245    3.2267 H       1  LIG1        0.0899
     41 H          -7.6541   -3.3915    0.4220 H       1  LIG1        0.1542
     42 H          -6.1132   -2.2502    1.2932 H       1  LIG1        0.2009
@<TRIPOS>BOND
     1     1     2   ar
     2     1     4   ar
     3     2     5   ar
     4     3     6   ar
     5     3     7   ar
     6     4     8   ar
     7     5     9   ar
     8     6    10   ar
     9     7    18   ar
    10     8     9   ar
    11     8    19   ar
    12     9    20   ar
    13    10    11   ar
    14    10    23    1
    15    11    18   ar
    16    11    21    1
    17    12    17    1
    18    12    19   ar
    19    12    20   ar
    20    13    15    1
    21    13    21    1
    22    14    16    1
    23    14    21    1
    24    15    22    1
    25    16    22    1
    26    17    22    1
    27     1    24    1
    28     2    25    1
    29     3    26    1
    30     4    27    1
    31     5    28    1
    32     6    29    1
    33     7    30    1
    34    13    31    1
    35    13    32    1
    36    14    33    1
    37    14    34    1
    38    15    35    1
    39    15    36    1
    40    16    37    1
    41    16    38    1
    42    17    39    1
    43    17    40    1
    44    20    41    1
    45    22    42    1
