@<TRIPOS>MOLECULE
ChEBML212724
 36 38 0 0 0
SMALL
USER_CHARGES

@<TRIPOS>ATOM
      1 C         -10.1552   -5.2596    0.6758 C.ar    1  LIG1       -0.0386
      2 C         -11.4883   -5.5941    0.7584 C.ar    1  LIG1       -0.0401
      3 C          -9.9523   -1.9265    1.9856 C.ar    1  LIG1       -0.0247
      4 C         -10.6655   -3.0964    1.6301 C.ar    1  LIG1        0.0180
      5 C          -9.7265   -4.0079    1.1092 C.ar    1  LIG1        0.0394
      6 C         -12.4142   -4.6938    1.2722 C.ar    1  LIG1        0.0599
      7 C         -12.0177   -3.4596    1.7048 C.ar    1  LIG1        0.0684
      8 C          -8.6427   -2.1336    1.6883 C.ar    1  LIG1        0.0947
      9 C          -7.5569   -1.1652    1.9007 C.2     1  LIG1        0.2602
     10 C          -5.2459   -0.4321    1.5254 C.3     1  LIG1        0.0539
     11 C          -6.2666   -2.2710    0.1309 C.3     1  LIG1        0.0539
     12 C          -4.7375    0.1924    0.2218 C.3     1  LIG1       -0.0183
     13 C          -5.7101   -1.5596   -1.1068 C.3     1  LIG1       -0.0183
     14 C          -3.8726   -0.2804   -1.9634 C.3     1  LIG1       -0.0453
     15 N          -8.4951   -3.3971    1.1488 N.ar    1  LIG1       -0.3100
     16 N          -6.4036   -1.2844    1.2137 N.am    1  LIG1       -0.2863
     17 N          -4.4629   -0.8697   -0.7541 N.4     1  LIG1        0.2462
     18 O          -7.6995   -0.2564    2.6967 O.2     1  LIG1       -0.2701
     19 CL        -14.0889   -5.1412    1.3657 Cl      1  LIG1       -0.0827
     20 CL        -13.1844   -2.3451    2.3454 Cl      1  LIG1       -0.0819
     21 H          -9.4436   -5.9667    0.2756 H       1  LIG1        0.0643
     22 H         -11.8176   -6.5658    0.4210 H       1  LIG1        0.0639
     23 H         -10.3736   -1.0302    2.4165 H       1  LIG1        0.0652
     24 H          -4.4570   -1.0356    1.9744 H       1  LIG1        0.0525
     25 H          -5.5464    0.3557    2.2161 H       1  LIG1        0.0525
     26 H          -5.5808   -3.0602    0.4392 H       1  LIG1        0.0525
     27 H          -7.2421   -2.6989   -0.1002 H       1  LIG1        0.0525
     28 H          -3.8221    0.7505    0.4189 H       1  LIG1        0.0831
     29 H          -5.4952    0.8663   -0.1780 H       1  LIG1        0.0831
     30 H          -6.4383   -0.8326   -1.4664 H       1  LIG1        0.0831
     31 H          -5.5114   -2.2925   -1.8887 H       1  LIG1        0.0831
     32 H          -4.5724    0.4328   -2.3989 H       1  LIG1        0.0777
     33 H          -2.9465    0.2321   -1.7030 H       1  LIG1        0.0777
     34 H          -3.6608   -1.0687   -2.6856 H       1  LIG1        0.0777
     35 H          -7.6600   -3.7894    0.8494 H       1  LIG1        0.1529
     36 H          -3.8153   -1.5318   -0.3536 H       1  LIG1        0.2001
@<TRIPOS>BOND
     1     1     2   ar
     2     1     5   ar
     3     2     6   ar
     4     3     4   ar
     5     3     8   ar
     6     4     5   ar
     7     4     7   ar
     8     5    15   ar
     9     6     7   ar
    10     6    19    1
    11     7    20    1
    12     8     9    1
    13     8    15   ar
    14     9    16   am
    15     9    18    2
    16    10    12    1
    17    10    16    1
    18    11    13    1
    19    11    16    1
    20    12    17    1
    21    13    17    1
    22    14    17    1
    23     1    21    1
    24     2    22    1
    25     3    23    1
    26    10    24    1
    27    10    25    1
    28    11    26    1
    29    11    27    1
    30    12    28    1
    31    12    29    1
    32    13    30    1
    33    13    31    1
    34    14    32    1
    35    14    33    1
    36    14    34    1
    37    15    35    1
    38    17    36    1
