@<TRIPOS>MOLECULE
ChEBML351752
 52 55 0 0 0
SMALL
USER_CHARGES

@<TRIPOS>ATOM
      1 C         -11.8493   -5.6232    1.3859 C.ar    1  LIG1       -0.0569
      2 C          -3.0641    1.5875   -2.2577 C.ar    1  LIG1       -0.0575
      3 C          -3.0215   -0.7718   -2.7764 C.ar    1  LIG1       -0.0575
      4 C         -10.5217   -5.3221    1.0686 C.ar    1  LIG1       -0.0399
      5 C          -1.8746    1.7644   -2.9645 C.ar    1  LIG1       -0.0432
      6 C          -1.8321   -0.5949   -3.4833 C.ar    1  LIG1       -0.0432
      7 C         -12.2205   -3.3736    2.2216 C.ar    1  LIG1       -0.0496
      8 C         -10.0967   -1.8698    2.0414 C.ar    1  LIG1       -0.0272
      9 C         -10.8857   -3.0468    1.9104 C.ar    1  LIG1       -0.0020
     10 C          -3.6375    0.3194   -2.1636 C.ar    1  LIG1       -0.0474
     11 C         -12.6874   -4.6655    1.9535 C.ar    1  LIG1       -0.0421
     12 C         -10.0687   -4.0266    1.3422 C.ar    1  LIG1        0.0378
     13 C          -1.2587    0.6732   -3.5773 C.ar    1  LIG1        0.0406
     14 C          -8.8394   -2.1527    1.5595 C.ar    1  LIG1        0.0841
     15 C          -7.6972   -1.3215    1.4706 C.ar    1  LIG1        0.2202
     16 C          -5.9164   -0.4577    0.8689 C.ar    1  LIG1        0.1593
     17 C         -16.9268   -4.5327    2.8061 C.3     1  LIG1       -0.0457
     18 C         -17.4578   -5.0249    0.4237 C.3     1  LIG1       -0.0457
     19 C          -4.9254    0.1278   -1.4003 C.3     1  LIG1       -0.0207
     20 C         -14.1005   -5.0192    2.2794 C.3     1  LIG1        0.0116
     21 C          -4.6949   -0.1988    0.0990 C.3     1  LIG1        0.0140
     22 C         -15.0883   -4.7600    1.1417 C.3     1  LIG1       -0.0308
     23 N          -6.7845   -1.4584    0.5421 N.ar    1  LIG1       -0.2028
     24 N          -6.2483    0.2737    1.9369 N.ar    1  LIG1       -0.1113
     25 N          -8.8323   -3.4559    1.1399 N.ar    1  LIG1       -0.3108
     26 N         -16.4515   -5.1936    1.5355 N.4     1  LIG1        0.2420
     27 O          -7.4542   -0.3103    2.3450 O.2     1  LIG1       -0.1898
     28 CL          0.2086    0.8918   -4.4492 Cl      1  LIG1       -0.0843
     29 H         -12.2238   -6.6239    1.1823 H       1  LIG1        0.0626
     30 H          -3.5379    2.4426   -1.7828 H       1  LIG1        0.0626
     31 H          -3.4619   -1.7630   -2.7080 H       1  LIG1        0.0626
     32 H          -9.8707   -6.0685    0.6263 H       1  LIG1        0.0643
     33 H          -1.4397    2.7584   -3.0295 H       1  LIG1        0.0638
     34 H          -1.3633   -1.4544   -3.9555 H       1  LIG1        0.0638
     35 H         -12.8775   -2.6297    2.6640 H       1  LIG1        0.0632
     36 H         -10.4199   -0.9196    2.4463 H       1  LIG1        0.0651
     37 H         -16.9758   -3.4574    2.6250 H       1  LIG1        0.0777
     38 H         -17.9128   -4.9362    3.0441 H       1  LIG1        0.0777
     39 H         -16.2069   -4.7656    3.5932 H       1  LIG1        0.0777
     40 H         -17.5192   -3.9610    0.1875 H       1  LIG1        0.0777
     41 H         -17.1054   -5.5983   -0.4359 H       1  LIG1        0.0777
     42 H         -18.4174   -5.4034    0.7812 H       1  LIG1        0.0777
     43 H          -5.5258    1.0409   -1.5055 H       1  LIG1        0.0320
     44 H          -5.5183   -0.6706   -1.8645 H       1  LIG1        0.0320
     45 H         -14.1514   -6.0886    2.5360 H       1  LIG1        0.0370
     46 H         -14.4365   -4.4891    3.1838 H       1  LIG1        0.0370
     47 H          -4.1370    0.6573    0.5371 H       1  LIG1        0.0353
     48 H          -3.9747   -1.0441    0.1671 H       1  LIG1        0.0353
     49 H         -14.8257   -5.3411    0.2528 H       1  LIG1        0.0818
     50 H         -15.1556   -3.7008    0.8754 H       1  LIG1        0.0818
     51 H          -8.0377   -3.9348    0.7381 H       1  LIG1        0.1529
     52 H         -16.4152   -6.2076    1.7369 H       1  LIG1        0.1997
@<TRIPOS>BOND
     1     1     4   ar
     2     1    11   ar
     3     2     5   ar
     4     2    10   ar
     5     3     6   ar
     6     3    10   ar
     7     4    12   ar
     8     5    13   ar
     9     6    13   ar
    10     7     9   ar
    11     7    11   ar
    12     8     9   ar
    13     8    14   ar
    14     9    12   ar
    15    10    19    1
    16    11    20    1
    17    12    25   ar
    18    13    28    1
    19    14    15    1
    20    14    25   ar
    21    15    23   ar
    22    15    27   ar
    23    16    21    1
    24    16    23   ar
    25    16    24   ar
    26    17    26    1
    27    18    26    1
    28    19    21    1
    29    20    22    1
    30    22    26    1
    31    24    27   ar
    32     1    29    1
    33     2    30    1
    34     3    31    1
    35     4    32    1
    36     5    33    1
    37     6    34    1
    38     7    35    1
    39     8    36    1
    40    17    37    1
    41    17    38    1
    42    17    39    1
    43    18    40    1
    44    18    41    1
    45    18    42    1
    46    19    43    1
    47    19    44    1
    48    20    45    1
    49    20    46    1
    50    21    47    1
    51    21    48    1
    52    22    49    1
    53    22    50    1
    54    25    51    1
    55    26    52    1
