@<TRIPOS>MOLECULE
ChEBML300388
 59 61 0 0 0
SMALL
USER_CHARGES

@<TRIPOS>ATOM
      1 C         -10.2735   -5.1672    0.3405 C.ar    1  LIG1       -0.0387
      2 C         -11.6090   -5.5564    0.4783 C.ar    1  LIG1       -0.0416
      3 C         -12.0989   -3.6025    1.8344 C.ar    1  LIG1       -0.0343
      4 C         -10.0136   -2.0766    2.1914 C.ar    1  LIG1       -0.0262
      5 C         -10.7573   -3.1900    1.7097 C.ar    1  LIG1       -0.0007
      6 C          -9.8774   -3.9803    0.9671 C.ar    1  LIG1        0.0379
      7 C         -12.5093   -4.7876    1.2132 C.ar    1  LIG1        0.0413
      8 C          -8.7206   -2.2102    1.7407 C.ar    1  LIG1        0.0945
      9 C          -7.5645   -1.3072    1.9757 C.2     1  LIG1        0.2576
     10 C          -5.0321    0.0963    0.4421 C.2     1  LIG1        0.2319
     11 C          -4.7078   -0.0696   -5.7763 C.3     1  LIG1       -0.0533
     12 C          -3.3301   -0.7028   -5.5619 C.3     1  LIG1       -0.0533
     13 C          -5.8461   -0.7553   -5.0101 C.3     1  LIG1       -0.0532
     14 C          -2.2504    0.2759   -5.0824 C.3     1  LIG1       -0.0532
     15 C          -5.6776   -0.8699   -3.4901 C.3     1  LIG1       -0.0515
     16 C          -2.5592    1.0606   -3.8014 C.3     1  LIG1       -0.0515
     17 C          -5.4600    0.4675   -2.7750 C.3     1  LIG1       -0.0345
     18 C          -2.8773    0.1828   -2.5844 C.3     1  LIG1       -0.0345
     19 C          -4.2072    0.5139   -1.8801 C.3     1  LIG1        0.0254
     20 C          -5.1484   -0.9343    1.5514 C.3     1  LIG1        0.0887
     21 C          -3.8782   -1.7091   -0.8678 C.3     1  LIG1        0.0377
     22 C          -2.4378   -1.7576   -0.3915 C.3     1  LIG1        0.0589
     23 N          -8.6483   -3.3612    1.0030 N.ar    1  LIG1       -0.3101
     24 N          -6.3590   -1.6888    1.3951 N.am    1  LIG1       -0.3013
     25 N          -4.3948   -0.3477   -0.7300 N.am    1  LIG1       -0.2952
     26 O          -7.7171   -0.3050    2.6690 O.2     1  LIG1       -0.2704
     27 O          -5.4787    1.2369    0.5906 O.2     1  LIG1       -0.2756
     28 O          -1.9513   -3.0898   -0.4939 O.3     1  LIG1       -0.3947
     29 CL        -14.1480   -5.2996    1.3588 Cl      1  LIG1       -0.0843
     30 H          -9.5734   -5.7670   -0.2314 H       1  LIG1        0.0643
     31 H         -11.9346   -6.4768   -0.0018 H       1  LIG1        0.0639
     32 H         -12.7998   -3.0021    2.4084 H       1  LIG1        0.0645
     33 H         -10.3885   -1.2662    2.8023 H       1  LIG1        0.0651
     34 H          -4.7003    1.0023   -5.5585 H       1  LIG1        0.0266
     35 H          -4.9501   -0.1362   -6.8454 H       1  LIG1        0.0266
     36 H          -3.3812   -1.5651   -4.8909 H       1  LIG1        0.0266
     37 H          -2.9914   -1.1151   -6.5217 H       1  LIG1        0.0266
     38 H          -6.7764   -0.2130   -5.2214 H       1  LIG1        0.0266
     39 H          -5.9843   -1.7655   -5.4156 H       1  LIG1        0.0266
     40 H          -1.3186   -0.2853   -4.9370 H       1  LIG1        0.0266
     41 H          -2.0490    0.9973   -5.8846 H       1  LIG1        0.0266
     42 H          -6.5976   -1.3207   -3.0942 H       1  LIG1        0.0267
     43 H          -4.8909   -1.5911   -3.2520 H       1  LIG1        0.0267
     44 H          -1.6719    1.6626   -3.5642 H       1  LIG1        0.0267
     45 H          -3.3492    1.7919   -3.9940 H       1  LIG1        0.0267
     46 H          -5.4613    1.3065   -3.4784 H       1  LIG1        0.0285
     47 H          -6.3352    0.6507   -2.1354 H       1  LIG1        0.0285
     48 H          -2.8524   -0.8792   -2.8456 H       1  LIG1        0.0285
     49 H          -2.0626    0.3083   -1.8575 H       1  LIG1        0.0285
     50 H          -4.1199    1.5262   -1.4662 H       1  LIG1        0.0506
     51 H          -4.3126   -1.6371    1.5060 H       1  LIG1        0.0567
     52 H          -5.1910   -0.4416    2.5262 H       1  LIG1        0.0567
     53 H          -3.9585   -2.0016   -1.9195 H       1  LIG1        0.0493
     54 H          -4.5021   -2.3737   -0.2624 H       1  LIG1        0.0493
     55 H          -2.3803   -1.4568    0.6592 H       1  LIG1        0.0580
     56 H          -1.7947   -1.1012   -0.9866 H       1  LIG1        0.0580
     57 H          -7.8149   -3.7095    0.5491 H       1  LIG1        0.1529
     58 H          -6.3032   -2.5701    0.8855 H       1  LIG1        0.1503
     59 H          -1.0325   -3.0766   -0.1812 H       1  LIG1        0.2101
@<TRIPOS>BOND
     1     1     2   ar
     2     1     6   ar
     3     2     7   ar
     4     3     5   ar
     5     3     7   ar
     6     4     5   ar
     7     4     8   ar
     8     5     6   ar
     9     6    23   ar
    10     7    29    1
    11     8     9    1
    12     8    23   ar
    13     9    24   am
    14     9    26    2
    15    10    20    1
    16    10    25   am
    17    10    27    2
    18    11    12    1
    19    11    13    1
    20    12    14    1
    21    13    15    1
    22    14    16    1
    23    15    17    1
    24    16    18    1
    25    17    19    1
    26    18    19    1
    27    19    25    1
    28    20    24    1
    29    21    22    1
    30    21    25    1
    31    22    28    1
    32     1    30    1
    33     2    31    1
    34     3    32    1
    35     4    33    1
    36    11    34    1
    37    11    35    1
    38    12    36    1
    39    12    37    1
    40    13    38    1
    41    13    39    1
    42    14    40    1
    43    14    41    1
    44    15    42    1
    45    15    43    1
    46    16    44    1
    47    16    45    1
    48    17    46    1
    49    17    47    1
    50    18    48    1
    51    18    49    1
    52    19    50    1
    53    20    51    1
    54    20    52    1
    55    21    53    1
    56    21    54    1
    57    22    55    1
    58    22    56    1
    59    23    57    1
    60    24    58    1
    61    28    59    1
