@<TRIPOS>MOLECULE
ChEBML198714
 54 56 0 0 0
SMALL
USER_CHARGES

@<TRIPOS>ATOM
      1 C          -1.9925    0.9106   -3.2633 C.ar    1  LIG1       -0.0431
      2 C          -1.8372   -0.4522   -3.0358 C.ar    1  LIG1       -0.0449
      3 C         -11.8162   -5.2717    1.9882 C.ar    1  LIG1       -0.0572
      4 C         -12.3563   -2.9533    1.5754 C.ar    1  LIG1       -0.0572
      5 C         -10.4774   -5.0119    1.6958 C.ar    1  LIG1       -0.0404
      6 C         -11.0173   -2.6936    1.2829 C.ar    1  LIG1       -0.0404
      7 C          -3.0870    1.5425   -2.6954 C.ar    1  LIG1        0.0291
      8 C         -12.7557   -4.2424    1.9280 C.ar    1  LIG1       -0.0479
      9 C          -2.7680   -1.1320   -2.2581 C.ar    1  LIG1        0.0957
     10 C         -10.0779   -3.7229    1.3432 C.ar    1  LIG1        0.0340
     11 C          -3.8278   -0.4087   -1.7350 C.ar    1  LIG1        0.1323
     12 C          -8.1606   -2.2351    1.3661 C.2     1  LIG1        0.3050
     13 C          -4.9502   -0.6531    0.4219 C.3     1  LIG1        0.0288
     14 C          -5.8386   -1.7814   -1.6406 C.3     1  LIG1        0.0288
     15 C          -6.4391   -0.5632    0.7483 C.3     1  LIG1        0.0315
     16 C          -6.6480   -2.6118   -0.6435 C.3     1  LIG1        0.0315
     17 C         -16.6317   -6.3107    2.3039 C.3     1  LIG1       -0.0654
     18 C         -14.1872   -4.5202    2.2406 C.3     1  LIG1       -0.0279
     19 C         -16.4582   -5.1733    1.3101 C.3     1  LIG1       -0.0558
     20 C         -14.9835   -4.9284    0.9904 C.3     1  LIG1       -0.0495
     21 C          -2.5977   -2.5933   -2.0163 C.3     1  LIG1        0.4193
     22 N          -4.0120    0.9157   -1.9344 N.ar    1  LIG1       -0.2408
     23 N          -4.7474   -1.0750   -0.9668 N.pl3   1  LIG1       -0.3122
     24 N          -7.1218   -1.8324    0.5056 N.am    1  LIG1       -0.2824
     25 N          -8.7345   -3.4618    1.0499 N.am    1  LIG1       -0.2691
     26 O          -8.5290   -1.5575    2.3310 O.2     1  LIG1       -0.2537
     27 F          -1.4907   -3.1228   -2.6171 F       1  LIG1       -0.1660
     28 F          -2.4752   -2.9187   -0.6952 F       1  LIG1       -0.1660
     29 F          -3.6510   -3.3287   -2.4779 F       1  LIG1       -0.1660
     30 H          -1.2791    1.4609   -3.8659 H       1  LIG1        0.0639
     31 H          -0.9884   -0.9747   -3.4682 H       1  LIG1        0.0631
     32 H         -12.1190   -6.2796    2.2600 H       1  LIG1        0.0626
     33 H         -13.0816   -2.1455    1.5251 H       1  LIG1        0.0626
     34 H          -9.7537   -5.8216    1.7463 H       1  LIG1        0.0642
     35 H         -10.7171   -1.6855    1.0081 H       1  LIG1        0.0642
     36 H          -3.2546    2.6043   -2.8432 H       1  LIG1        0.0840
     37 H          -4.4840    0.3222    0.6095 H       1  LIG1        0.0485
     38 H          -4.4633   -1.3816    1.0814 H       1  LIG1        0.0485
     39 H          -5.4383   -2.4429   -2.4182 H       1  LIG1        0.0485
     40 H          -6.4951   -1.0510   -2.1309 H       1  LIG1        0.0485
     41 H          -6.5738   -0.2550    1.7904 H       1  LIG1        0.0486
     42 H          -6.9285    0.1893    0.1179 H       1  LIG1        0.0486
     43 H          -7.5043   -3.0583   -1.1595 H       1  LIG1        0.0486
     44 H          -6.0334   -3.4264   -0.2415 H       1  LIG1        0.0486
     45 H         -16.1947   -7.2378    1.9192 H       1  LIG1        0.0230
     46 H         -17.6910   -6.4907    2.5131 H       1  LIG1        0.0230
     47 H         -16.1352   -6.0679    3.2487 H       1  LIG1        0.0230
     48 H         -14.2702   -5.3192    2.9971 H       1  LIG1        0.0316
     49 H         -14.6628   -3.6354    2.6973 H       1  LIG1        0.0316
     50 H         -16.9054   -4.2624    1.7250 H       1  LIG1        0.0264
     51 H         -17.0040   -5.4134    0.3903 H       1  LIG1        0.0264
     52 H         -14.5466   -5.8371    0.5571 H       1  LIG1        0.0270
     53 H         -14.8986   -4.1434    0.2283 H       1  LIG1        0.0270
     54 H          -8.1957   -4.2227    0.6526 H       1  LIG1        0.1573
@<TRIPOS>BOND
     1     1     2   ar
     2     1     7   ar
     3     2     9   ar
     4     3     5   ar
     5     3     8   ar
     6     4     6   ar
     7     4     8   ar
     8     5    10   ar
     9     6    10   ar
    10     7    22   ar
    11     8    18    1
    12     9    11   ar
    13     9    21    1
    14    10    25    1
    15    11    22   ar
    16    11    23    1
    17    12    24   am
    18    12    25   am
    19    12    26    2
    20    13    15    1
    21    13    23    1
    22    14    16    1
    23    14    23    1
    24    15    24    1
    25    16    24    1
    26    17    19    1
    27    18    20    1
    28    19    20    1
    29    21    27    1
    30    21    28    1
    31    21    29    1
    32     1    30    1
    33     2    31    1
    34     3    32    1
    35     4    33    1
    36     5    34    1
    37     6    35    1
    38     7    36    1
    39    13    37    1
    40    13    38    1
    41    14    39    1
    42    14    40    1
    43    15    41    1
    44    15    42    1
    45    16    43    1
    46    16    44    1
    47    17    45    1
    48    17    46    1
    49    17    47    1
    50    18    48    1
    51    18    49    1
    52    19    50    1
    53    19    51    1
    54    20    52    1
    55    20    53    1
    56    25    54    1
