@<TRIPOS>MOLECULE
ChEBML348117
 39 42 0 0 0
SMALL
USER_CHARGES

@<TRIPOS>ATOM
      1 C          -3.5228   -2.3719   -0.9029 C.ar    1  LIG1       -0.0528
      2 C          -2.7639   -1.6241   -1.8106 C.ar    1  LIG1       -0.0586
      3 C         -10.3132   -5.2774    0.6280 C.ar    1  LIG1       -0.0376
      4 C         -11.6621   -5.6288    0.7332 C.ar    1  LIG1       -0.0299
      5 C         -12.2177   -3.4511    1.6528 C.ar    1  LIG1       -0.0226
      6 C          -5.6249   -2.2313    0.6352 C.ar    1  LIG1       -0.0276
      7 C         -10.1382   -1.8920    1.8748 C.ar    1  LIG1       -0.0275
      8 C          -4.2317    0.2934   -1.5398 C.ar    1  LIG1       -0.0372
      9 C          -4.6532   -1.7825   -0.3027 C.ar    1  LIG1       -0.0022
     10 C         -10.8633   -3.0742    1.5564 C.ar    1  LIG1        0.0003
     11 C          -3.1147   -0.3120   -2.1226 C.ar    1  LIG1       -0.0492
     12 C          -9.9443   -3.9942    1.0472 C.ar    1  LIG1        0.0379
     13 C          -4.9809   -0.4662   -0.6343 C.ar    1  LIG1        0.0380
     14 C         -12.6013   -4.7313    1.2373 C.ar    1  LIG1        0.0753
     15 C          -6.5071   -1.1979    0.8508 C.ar    1  LIG1        0.0811
     16 C          -8.8174   -2.1132    1.5590 C.ar    1  LIG1        0.0811
     17 C          -7.6491   -1.1715    1.7089 C.2     1  LIG1        0.2206
     18 C          -2.2860    0.4612   -3.0945 C.3     1  LIG1       -0.0397
     19 C         -14.8216   -4.1410    1.8514 C.3     1  LIG1        0.0422
     20 N          -8.7104   -3.3837    1.0603 N.ar    1  LIG1       -0.3112
     21 N          -6.1106   -0.1377    0.0806 N.ar    1  LIG1       -0.3112
     22 O          -7.7381   -0.3473    2.6486 O.2     1  LIG1       -0.2856
     23 O         -13.9094   -5.1035    1.3275 O.3     1  LIG1       -0.3493
     24 H          -3.2380   -3.3936   -0.6687 H       1  LIG1        0.0630
     25 H          -1.8921   -2.0822   -2.2719 H       1  LIG1        0.0625
     26 H          -9.5828   -5.9766    0.2351 H       1  LIG1        0.0643
     27 H         -11.9753   -6.6203    0.4142 H       1  LIG1        0.0651
     28 H         -12.9563   -2.7568    2.0441 H       1  LIG1        0.0657
     29 H          -5.6697   -3.2072    1.1000 H       1  LIG1        0.0651
     30 H         -10.5435   -0.9791    2.2907 H       1  LIG1        0.0651
     31 H          -4.5108    1.3149   -1.7782 H       1  LIG1        0.0645
     32 H          -2.6624    0.3173   -4.1140 H       1  LIG1        0.0280
     33 H          -2.3020    1.5337   -2.8644 H       1  LIG1        0.0280
     34 H          -1.2363    0.1435   -3.0617 H       1  LIG1        0.0280
     35 H         -15.8288   -4.5644    1.8692 H       1  LIG1        0.0535
     36 H         -14.8032   -3.2432    1.2284 H       1  LIG1        0.0535
     37 H         -14.5197   -3.8820    2.8690 H       1  LIG1        0.0535
     38 H          -7.8516   -3.8145    0.7461 H       1  LIG1        0.1529
     39 H          -6.5770    0.7583    0.0403 H       1  LIG1        0.1529
@<TRIPOS>BOND
     1     1     2   ar
     2     1     9   ar
     3     2    11   ar
     4     3     4   ar
     5     3    12   ar
     6     4    14   ar
     7     5    10   ar
     8     5    14   ar
     9     6     9   ar
    10     6    15   ar
    11     7    10   ar
    12     7    16   ar
    13     8    11   ar
    14     8    13   ar
    15     9    13   ar
    16    10    12   ar
    17    11    18    1
    18    12    20   ar
    19    13    21   ar
    20    14    23    1
    21    15    17    1
    22    15    21   ar
    23    16    17    1
    24    16    20   ar
    25    17    22    2
    26    19    23    1
    27     1    24    1
    28     2    25    1
    29     3    26    1
    30     4    27    1
    31     5    28    1
    32     6    29    1
    33     7    30    1
    34     8    31    1
    35    18    32    1
    36    18    33    1
    37    18    34    1
    38    19    35    1
    39    19    36    1
    40    19    37    1
    41    20    38    1
    42    21    39    1
