@<TRIPOS>MOLECULE
ChEBML198824
 51 53 0 0 0
SMALL
USER_CHARGES

@<TRIPOS>ATOM
      1 C          -2.2254    0.9423   -3.4715 C.ar    1  LIG1       -0.0434
      2 C          -1.9726   -0.4018   -3.2209 C.ar    1  LIG1       -0.0543
      3 C         -11.9821   -2.9669    0.9347 C.ar    1  LIG1       -0.0569
      4 C         -11.6358   -5.3543    0.8035 C.ar    1  LIG1       -0.0569
      5 C         -10.6159   -2.7803    1.1455 C.ar    1  LIG1       -0.0404
      6 C         -10.2696   -5.1677    1.0142 C.ar    1  LIG1       -0.0404
      7 C          -3.3165    1.5245   -2.8469 C.ar    1  LIG1        0.0291
      8 C         -12.4920   -4.2539    0.7638 C.ar    1  LIG1       -0.0453
      9 C          -2.8069   -1.1125   -2.3652 C.ar    1  LIG1       -0.0107
     10 C          -9.7597   -3.8807    1.1852 C.ar    1  LIG1        0.0340
     11 C          -3.8719   -0.4383   -1.7899 C.ar    1  LIG1        0.1229
     12 C          -7.8711   -2.4266    1.6421 C.2     1  LIG1        0.3050
     13 C          -4.8323   -0.6857    0.4435 C.3     1  LIG1        0.0288
     14 C          -5.7848   -1.9241   -1.5253 C.3     1  LIG1        0.0288
     15 C          -6.2993   -0.6746    0.8674 C.3     1  LIG1        0.0315
     16 C          -6.4743   -2.7716   -0.4551 C.3     1  LIG1        0.0315
     17 C          -2.5323   -2.5536   -2.0989 C.3     1  LIG1       -0.0363
     18 C         -14.6137   -5.2800    1.6577 C.3     1  LIG1       -0.0587
     19 C         -14.2559   -5.0911   -0.8305 C.3     1  LIG1       -0.0587
     20 C         -13.9527   -4.4533    0.5385 C.3     1  LIG1       -0.0219
     21 N          -4.1492    0.8665   -2.0094 N.ar    1  LIG1       -0.2411
     22 N          -4.6964   -1.1351   -0.9448 N.pl3   1  LIG1       -0.3125
     23 N          -6.9179   -1.9884    0.7035 N.am    1  LIG1       -0.2824
     24 N          -8.3887   -3.6938    1.3963 N.am    1  LIG1       -0.2691
     25 O          -8.2156   -1.7441    2.6125 O.2     1  LIG1       -0.2537
     26 H          -1.5881    1.5160   -4.1346 H       1  LIG1        0.0639
     27 H          -1.1239   -0.8857   -3.6966 H       1  LIG1        0.0627
     28 H         -12.6422   -2.1039    0.9075 H       1  LIG1        0.0626
     29 H         -12.0246   -6.3607    0.6720 H       1  LIG1        0.0626
     30 H         -10.2294   -1.7727    1.2770 H       1  LIG1        0.0642
     31 H          -9.6114   -6.0325    1.0444 H       1  LIG1        0.0642
     32 H          -3.5578    2.5699   -3.0096 H       1  LIG1        0.0840
     33 H          -4.4151    0.3204    0.5746 H       1  LIG1        0.0485
     34 H          -4.2596   -1.3646    1.0866 H       1  LIG1        0.0485
     35 H          -5.3970   -2.5832   -2.3113 H       1  LIG1        0.0485
     36 H          -6.5155   -1.2484   -1.9881 H       1  LIG1        0.0485
     37 H          -6.3834   -0.3447    1.9082 H       1  LIG1        0.0486
     38 H          -6.8741    0.0291    0.2530 H       1  LIG1        0.0486
     39 H          -7.3341   -3.2827   -0.9008 H       1  LIG1        0.0486
     40 H          -5.7861   -3.5363   -0.0754 H       1  LIG1        0.0486
     41 H          -1.8666   -2.6625   -1.2337 H       1  LIG1        0.0281
     42 H          -3.4593   -3.1055   -1.8958 H       1  LIG1        0.0281
     43 H          -2.0592   -3.0360   -2.9644 H       1  LIG1        0.0281
     44 H         -14.1675   -6.2771    1.7396 H       1  LIG1        0.0236
     45 H         -15.6867   -5.4098    1.4796 H       1  LIG1        0.0236
     46 H         -14.4926   -4.7797    2.6250 H       1  LIG1        0.0236
     47 H         -13.7751   -6.0725   -0.9100 H       1  LIG1        0.0236
     48 H         -13.8862   -4.4692   -1.6530 H       1  LIG1        0.0236
     49 H         -15.3319   -5.2333   -0.9796 H       1  LIG1        0.0236
     50 H         -14.4694   -3.4746    0.5384 H       1  LIG1        0.0346
     51 H          -7.8104   -4.5257    1.4165 H       1  LIG1        0.1573
@<TRIPOS>BOND
     1     1     2   ar
     2     1     7   ar
     3     2     9   ar
     4     3     5   ar
     5     3     8   ar
     6     4     6   ar
     7     4     8   ar
     8     5    10   ar
     9     6    10   ar
    10     7    21   ar
    11     8    20    1
    12     9    11   ar
    13     9    17    1
    14    10    24    1
    15    11    21   ar
    16    11    22    1
    17    12    23   am
    18    12    24   am
    19    12    25    2
    20    13    15    1
    21    13    22    1
    22    14    16    1
    23    14    22    1
    24    15    23    1
    25    16    23    1
    26    18    20    1
    27    19    20    1
    28     1    26    1
    29     2    27    1
    30     3    28    1
    31     4    29    1
    32     5    30    1
    33     6    31    1
    34     7    32    1
    35    13    33    1
    36    13    34    1
    37    14    35    1
    38    14    36    1
    39    15    37    1
    40    15    38    1
    41    16    39    1
    42    16    40    1
    43    17    41    1
    44    17    42    1
    45    17    43    1
    46    18    44    1
    47    18    45    1
    48    18    46    1
    49    19    47    1
    50    19    48    1
    51    19    49    1
    52    20    50    1
    53    24    51    1
