@<TRIPOS>MOLECULE
ChEBML300186
 44 46 0 0 0
SMALL
USER_CHARGES

@<TRIPOS>ATOM
      1 C          -1.9595    0.7660   -4.0534 C.ar    1  LIG1       -0.0621
      2 C          -2.2315   -0.5694   -3.7566 C.ar    1  LIG1       -0.0604
      3 C          -2.1655    1.7511   -3.0877 C.ar    1  LIG1       -0.0604
      4 C         -10.5724   -5.2079    0.7031 C.ar    1  LIG1       -0.0387
      5 C          -2.7097   -0.9198   -2.4939 C.ar    1  LIG1       -0.0405
      6 C          -2.6436    1.4008   -1.8250 C.ar    1  LIG1       -0.0405
      7 C         -11.9213   -5.4933    0.9333 C.ar    1  LIG1       -0.0416
      8 C         -12.2199   -3.4006    2.1285 C.ar    1  LIG1       -0.0343
      9 C         -10.0277   -1.9926    2.2558 C.ar    1  LIG1       -0.0262
     10 C         -10.8628   -3.0912    1.9088 C.ar    1  LIG1       -0.0007
     11 C         -10.0721   -4.0002    1.2027 C.ar    1  LIG1        0.0379
     12 C          -2.9157    0.0654   -1.5281 C.ar    1  LIG1        0.0355
     13 C         -12.7341   -4.6050    1.6346 C.ar    1  LIG1        0.0413
     14 C          -8.7694   -2.2512    1.7630 C.ar    1  LIG1        0.0945
     15 C          -7.5953   -1.4430    1.8615 C.2     1  LIG1        0.2576
     16 C          -4.6692   -0.9366   -0.1134 C.2     1  LIG1        0.2360
     17 C          -5.1382   -1.2380    1.3029 C.3     1  LIG1        0.0890
     18 C          -2.5922    0.0069    0.9661 C.3     1  LIG1        0.0426
     19 C          -1.6706   -1.1620    1.2627 C.3     1  LIG1        0.0593
     20 N          -8.8061   -3.4641    1.1293 N.ar    1  LIG1       -0.3101
     21 N          -6.4086   -1.9263    1.2694 N.am    1  LIG1       -0.3013
     22 N          -3.4124   -0.2989   -0.2163 N.am    1  LIG1       -0.2680
     23 O          -7.6035   -0.3442    2.4719 O.2     1  LIG1       -0.2704
     24 O          -5.3980   -1.2168   -1.0686 O.2     1  LIG1       -0.2752
     25 O          -0.8471   -1.4130    0.1311 O.3     1  LIG1       -0.3947
     26 CL        -14.3926   -4.9913    1.8969 Cl      1  LIG1       -0.0843
     27 H          -1.5864    1.0391   -5.0363 H       1  LIG1        0.0622
     28 H          -2.0704   -1.3368   -4.5080 H       1  LIG1        0.0623
     29 H          -1.9526    2.7908   -3.3188 H       1  LIG1        0.0623
     30 H          -9.9404   -5.9006    0.1575 H       1  LIG1        0.0643
     31 H          -2.9181   -1.9639   -2.2739 H       1  LIG1        0.0642
     32 H          -2.8004    2.1771   -1.0802 H       1  LIG1        0.0642
     33 H         -12.3275   -6.4280    0.5525 H       1  LIG1        0.0639
     34 H         -12.8526   -2.7070    2.6761 H       1  LIG1        0.0645
     35 H         -10.3202   -1.1090    2.8072 H       1  LIG1        0.0651
     36 H          -4.4274   -1.8974    1.8073 H       1  LIG1        0.0567
     37 H          -5.2807   -0.3106    1.8636 H       1  LIG1        0.0567
     38 H          -3.2638    0.2062    1.8072 H       1  LIG1        0.0498
     39 H          -2.0084    0.9075    0.7527 H       1  LIG1        0.0498
     40 H          -2.2599   -2.0634    1.4583 H       1  LIG1        0.0580
     41 H          -1.0296   -0.9601    2.1270 H       1  LIG1        0.0580
     42 H          -8.0197   -3.9056    0.6727 H       1  LIG1        0.1529
     43 H          -6.4242   -2.8457    0.8403 H       1  LIG1        0.1503
     44 H          -0.2764   -2.1637    0.3617 H       1  LIG1        0.2101
@<TRIPOS>BOND
     1     1     2   ar
     2     1     3   ar
     3     2     5   ar
     4     3     6   ar
     5     4     7   ar
     6     4    11   ar
     7     5    12   ar
     8     6    12   ar
     9     7    13   ar
    10     8    10   ar
    11     8    13   ar
    12     9    10   ar
    13     9    14   ar
    14    10    11   ar
    15    11    20   ar
    16    12    22    1
    17    13    26    1
    18    14    15    1
    19    14    20   ar
    20    15    21   am
    21    15    23    2
    22    16    17    1
    23    16    22   am
    24    16    24    2
    25    17    21    1
    26    18    19    1
    27    18    22    1
    28    19    25    1
    29     1    27    1
    30     2    28    1
    31     3    29    1
    32     4    30    1
    33     5    31    1
    34     6    32    1
    35     7    33    1
    36     8    34    1
    37     9    35    1
    38    17    36    1
    39    17    37    1
    40    18    38    1
    41    18    39    1
    42    19    40    1
    43    19    41    1
    44    20    42    1
    45    21    43    1
    46    25    44    1
