@<TRIPOS>MOLECULE
ChEBML613749
 49 51 0 0 0
SMALL
USER_CHARGES

@<TRIPOS>ATOM
      1 C         -10.6687   -3.3037    2.1320 C.ar    1  LIG1       -0.0388
      2 C         -10.3722   -4.8255    0.2791 C.ar    1  LIG1       -0.0388
      3 C         -11.9942   -3.7185    2.2607 C.ar    1  LIG1       -0.0389
      4 C         -11.6977   -5.2404    0.4078 C.ar    1  LIG1       -0.0389
      5 C          -6.1552   -1.2692    0.4235 C.ar    1  LIG1        0.0094
      6 C          -4.2437   -2.7872    1.5424 C.ar    1  LIG1        0.1180
      7 C          -9.8576   -3.8571    1.1412 C.ar    1  LIG1        0.0330
      8 C         -12.5086   -4.6868    1.3986 C.ar    1  LIG1        0.0326
      9 C          -6.4431   -2.2436    1.3574 C.ar    1  LIG1        0.1310
     10 C          -4.8209   -1.1259    0.1023 C.ar    1  LIG1        0.1217
     11 C          -7.8144   -2.4830    1.7718 C.2     1  LIG1        0.2660
     12 C         -14.5211   -6.0537    0.7613 C.2     1  LIG1        0.2128
     13 C          -1.2267    0.7556   -3.4239 C.3     1  LIG1       -0.0532
     14 C          -1.3121   -0.6523   -2.8414 C.3     1  LIG1       -0.0515
     15 C          -1.6647    1.8111   -2.4124 C.3     1  LIG1       -0.0515
     16 C          -2.7045   -0.9497   -2.2877 C.3     1  LIG1       -0.0347
     17 C          -3.0578    1.5168   -1.8589 C.3     1  LIG1       -0.0347
     18 C          -3.1356    0.1065   -1.2641 C.3     1  LIG1        0.0211
     19 C         -15.9484   -6.2166    1.2203 C.3     1  LIG1        0.0130
     20 N          -5.5086   -3.0237    1.9392 N.ar    1  LIG1       -0.2312
     21 N          -3.8349   -1.8704    0.6445 N.ar    1  LIG1       -0.2217
     22 N          -8.5105   -3.4354    1.0100 N.am    1  LIG1       -0.2800
     23 N         -13.8344   -5.1019    1.5270 N.am    1  LIG1       -0.2857
     24 N          -4.4904   -0.1587   -0.8308 N.pl3   1  LIG1       -0.3265
     25 O          -8.3315   -1.8587    2.7100 O.2     1  LIG1       -0.2697
     26 O         -14.0836   -6.7132   -0.1760 O.2     1  LIG1       -0.2776
     27 H         -10.2787   -2.5485    2.8095 H       1  LIG1        0.0643
     28 H          -9.7491   -5.2637   -0.4963 H       1  LIG1        0.0643
     29 H         -12.6168   -3.2795    3.0363 H       1  LIG1        0.0643
     30 H         -12.0883   -5.9949   -0.2699 H       1  LIG1        0.0643
     31 H          -6.9289   -0.6582   -0.0263 H       1  LIG1        0.0684
     32 H          -3.4726   -3.3996    1.9935 H       1  LIG1        0.1063
     33 H          -0.1999    0.9589   -3.7482 H       1  LIG1        0.0266
     34 H          -1.8621    0.8199   -4.3159 H       1  LIG1        0.0266
     35 H          -1.0585   -1.3868   -3.6141 H       1  LIG1        0.0267
     36 H          -0.5705   -0.7618   -2.0405 H       1  LIG1        0.0267
     37 H          -0.9441    1.8465   -1.5860 H       1  LIG1        0.0267
     38 H          -1.6575    2.7997   -2.8849 H       1  LIG1        0.0267
     39 H          -3.4237   -0.9873   -3.1167 H       1  LIG1        0.0285
     40 H          -2.7114   -1.9444   -1.8256 H       1  LIG1        0.0285
     41 H          -3.3139    2.2611   -1.0948 H       1  LIG1        0.0285
     42 H          -3.7990    1.6283   -2.6614 H       1  LIG1        0.0285
     43 H          -2.4752    0.0478   -0.3905 H       1  LIG1        0.0503
     44 H         -16.5933   -5.5183    0.6795 H       1  LIG1        0.0328
     45 H         -16.0189   -6.0071    2.2915 H       1  LIG1        0.0328
     46 H         -16.2844   -7.2416    1.0382 H       1  LIG1        0.0328
     47 H          -7.9785   -3.8811    0.2667 H       1  LIG1        0.1560
     48 H         -14.3804   -4.6588    2.2750 H       1  LIG1        0.1556
     49 H          -5.2346    0.3970   -1.2341 H       1  LIG1        0.1483
@<TRIPOS>BOND
     1     1     3   ar
     2     1     7   ar
     3     2     4   ar
     4     2     7   ar
     5     3     8   ar
     6     4     8   ar
     7     5     9   ar
     8     5    10   ar
     9     6    20   ar
    10     6    21   ar
    11     7    22    1
    12     8    23    1
    13     9    11    1
    14     9    20   ar
    15    10    21   ar
    16    10    24    1
    17    11    22   am
    18    11    25    2
    19    12    19    1
    20    12    23   am
    21    12    26    2
    22    13    14    1
    23    13    15    1
    24    14    16    1
    25    15    17    1
    26    16    18    1
    27    17    18    1
    28    18    24    1
    29     1    27    1
    30     2    28    1
    31     3    29    1
    32     4    30    1
    33     5    31    1
    34     6    32    1
    35    13    33    1
    36    13    34    1
    37    14    35    1
    38    14    36    1
    39    15    37    1
    40    15    38    1
    41    16    39    1
    42    16    40    1
    43    17    41    1
    44    17    42    1
    45    18    43    1
    46    19    44    1
    47    19    45    1
    48    19    46    1
    49    22    47    1
    50    23    48    1
    51    24    49    1
