@<TRIPOS>MOLECULE
ChEBML394048
 45 48 0 0 0
SMALL
USER_CHARGES

@<TRIPOS>ATOM
      1 C          -2.7439    1.4685   -3.4379 C.ar    1  LIG1       -0.0618
      2 C          -1.6091    0.8588   -2.9149 C.ar    1  LIG1       -0.0604
      3 C          -4.0056    1.0181   -3.0602 C.ar    1  LIG1       -0.0571
      4 C         -10.7667   -5.2794    1.2262 C.ar    1  LIG1       -0.0387
      5 C          -1.7332   -0.2013   -2.0130 C.ar    1  LIG1       -0.0402
      6 C         -12.1182   -5.3340    1.5790 C.ar    1  LIG1       -0.0416
      7 C         -12.1101   -2.9871    2.2025 C.ar    1  LIG1       -0.0343
      8 C          -9.7792   -1.8650    1.8684 C.ar    1  LIG1       -0.0262
      9 C         -10.7473   -2.9078    1.8534 C.ar    1  LIG1       -0.0007
     10 C          -4.1386   -0.0358   -2.1442 C.ar    1  LIG1       -0.0240
     11 C         -10.1084   -4.0534    1.3743 C.ar    1  LIG1        0.0379
     12 C          -2.9979   -0.6606   -1.6108 C.ar    1  LIG1        0.0388
     13 C         -12.7816   -4.2068    2.0597 C.ar    1  LIG1        0.0413
     14 C          -8.5932   -2.3881    1.4070 C.ar    1  LIG1        0.0945
     15 C          -4.3976   -2.0950   -0.1410 C.2     1  LIG1        0.2395
     16 C          -7.2870   -1.7011    1.2366 C.2     1  LIG1        0.2578
     17 C          -5.5024   -0.5574   -1.8008 C.3     1  LIG1        0.0014
     18 C          -5.5070   -1.0743   -0.3740 C.3     1  LIG1        0.1042
     19 C          -1.9822   -2.5585   -0.3537 C.3     1  LIG1        0.0426
     20 C          -1.8237   -3.6888   -1.3541 C.3     1  LIG1        0.0593
     21 N          -8.8018   -3.7085    1.1113 N.ar    1  LIG1       -0.3101
     22 N          -3.1539   -1.7580   -0.7004 N.am    1  LIG1       -0.2674
     23 N          -6.7742   -1.6806   -0.0530 N.am    1  LIG1       -0.2982
     24 O          -4.5816   -3.0767    0.5827 O.2     1  LIG1       -0.2749
     25 O          -6.7309   -1.2173    2.2190 O.2     1  LIG1       -0.2704
     26 O          -1.6929   -3.1468   -2.6622 O.3     1  LIG1       -0.3947
     27 CL        -14.4485   -4.3134    2.4826 Cl      1  LIG1       -0.0843
     28 H          -2.6467    2.2875   -4.1442 H       1  LIG1        0.0623
     29 H          -0.6226    1.2043   -3.2108 H       1  LIG1        0.0623
     30 H          -4.8872    1.4888   -3.4879 H       1  LIG1        0.0626
     31 H         -10.2512   -6.1579    0.8527 H       1  LIG1        0.0643
     32 H          -0.8170   -0.6450   -1.6336 H       1  LIG1        0.0642
     33 H         -12.6461   -6.2792    1.4709 H       1  LIG1        0.0639
     34 H         -12.6260   -2.1072    2.5779 H       1  LIG1        0.0645
     35 H          -9.9376   -0.8423    2.1838 H       1  LIG1        0.0651
     36 H          -6.2568    0.2319   -1.9077 H       1  LIG1        0.0341
     37 H          -5.7607   -1.3549   -2.5096 H       1  LIG1        0.0341
     38 H          -5.3556   -0.2543    0.3388 H       1  LIG1        0.0608
     39 H          -2.1182   -2.9436    0.6619 H       1  LIG1        0.0498
     40 H          -1.1046   -1.9053   -0.3747 H       1  LIG1        0.0498
     41 H          -2.7117   -4.3283   -1.3407 H       1  LIG1        0.0580
     42 H          -0.9411   -4.2988   -1.1358 H       1  LIG1        0.0580
     43 H          -8.1004   -4.3416    0.7520 H       1  LIG1        0.1529
     44 H          -7.2652   -2.1587   -0.8040 H       1  LIG1        0.1506
     45 H          -1.5943   -3.8989   -3.2678 H       1  LIG1        0.2101
@<TRIPOS>BOND
     1     1     2   ar
     2     1     3   ar
     3     2     5   ar
     4     3    10   ar
     5     4     6   ar
     6     4    11   ar
     7     5    12   ar
     8     6    13   ar
     9     7     9   ar
    10     7    13   ar
    11     8     9   ar
    12     8    14   ar
    13     9    11   ar
    14    10    12   ar
    15    10    17    1
    16    11    21   ar
    17    12    22    1
    18    13    27    1
    19    14    16    1
    20    14    21   ar
    21    15    18    1
    22    15    22   am
    23    15    24    2
    24    16    23   am
    25    16    25    2
    26    17    18    1
    27    18    23    1
    28    19    20    1
    29    19    22    1
    30    20    26    1
    31     1    28    1
    32     2    29    1
    33     3    30    1
    34     4    31    1
    35     5    32    1
    36     6    33    1
    37     7    34    1
    38     8    35    1
    39    17    36    1
    40    17    37    1
    41    18    38    1
    42    19    39    1
    43    19    40    1
    44    20    41    1
    45    20    42    1
    46    21    43    1
    47    23    44    1
    48    26    45    1
