@<TRIPOS>MOLECULE
ChEBML998935
 44 48 0 0 0
SMALL
USER_CHARGES

@<TRIPOS>ATOM
      1 C         -12.8295   -4.1894    1.6119 C.ar    1  LIG1       -0.0614
      2 C           0.0549   -2.2230   -3.1135 C.ar    1  LIG1       -0.0618
      3 C          -0.7307   -3.0398   -2.3133 C.ar    1  LIG1       -0.0604
      4 C         -12.0773   -5.2201    1.0432 C.ar    1  LIG1       -0.0596
      5 C         -12.2227   -2.9974    2.0302 C.ar    1  LIG1       -0.0500
      6 C          -0.3720   -0.9316   -3.3985 C.ar    1  LIG1       -0.0571
      7 C          -1.9460   -2.5703   -1.8035 C.ar    1  LIG1       -0.0402
      8 C         -10.6952   -5.0996    0.8712 C.ar    1  LIG1       -0.0305
      9 C          -8.8244    0.0365    2.7931 C.ar    1  LIG1        0.1172
     10 C         -10.8336   -2.8532    1.8673 C.ar    1  LIG1        0.0339
     11 C          -1.5976   -0.4508   -2.9017 C.ar    1  LIG1       -0.0263
     12 C          -9.8743   -1.8464    2.1478 C.ar    1  LIG1        0.1083
     13 C          -2.4141   -1.2759   -2.0931 C.ar    1  LIG1        0.0386
     14 C         -10.1177   -3.9040    1.2956 C.ar    1  LIG1        0.0918
     15 C          -8.6491   -2.3457    1.7323 C.ar    1  LIG1        0.1407
     16 C          -7.4910   -1.6084    1.8633 C.ar    1  LIG1        0.1314
     17 C          -4.6059   -1.6155   -0.9467 C.2     1  LIG1        0.2290
     18 C          -1.9686    0.9720   -3.2297 C.3     1  LIG1       -0.0245
     19 C          -3.4555    1.2063   -3.0525 C.3     1  LIG1       -0.0328
     20 C          -3.8920    0.6811   -1.6965 C.3     1  LIG1        0.0197
     21 C          -5.4726   -0.9805    0.1184 C.3     1  LIG1        0.0772
     22 N         -10.0040   -0.6166    2.7020 N.ar    1  LIG1       -0.2333
     23 N          -7.5915   -0.3776    2.4131 N.ar    1  LIG1       -0.2271
     24 N          -3.6631   -0.7696   -1.5603 N.am    1  LIG1       -0.2706
     25 O          -4.7929   -2.8046   -1.2127 O.2     1  LIG1       -0.2761
     26 O          -8.7904   -3.5934    1.2145 O.2     1  LIG1       -0.3046
     27 S          -5.9166   -2.2237    1.3412 S.3     1  LIG1       -0.0938
     28 H         -13.9030   -4.3125    1.7318 H       1  LIG1        0.0623
     29 H           1.0013   -2.5849   -3.5032 H       1  LIG1        0.0623
     30 H          -0.3954   -4.0440   -2.0692 H       1  LIG1        0.0623
     31 H         -12.5757   -6.1335    0.7281 H       1  LIG1        0.0623
     32 H         -12.8208   -2.2051    2.4701 H       1  LIG1        0.0631
     33 H           0.2574   -0.2918   -4.0131 H       1  LIG1        0.0626
     34 H          -2.4790   -3.2473   -1.1453 H       1  LIG1        0.0642
     35 H         -10.1059   -5.8954    0.4313 H       1  LIG1        0.0650
     36 H          -8.8696    1.0282    3.2303 H       1  LIG1        0.1063
     37 H          -1.4022    1.6400   -2.5694 H       1  LIG1        0.0317
     38 H          -1.6923    1.2098   -4.2638 H       1  LIG1        0.0317
     39 H          -3.6776    2.2758   -3.1373 H       1  LIG1        0.0286
     40 H          -4.0139    0.6921   -3.8454 H       1  LIG1        0.0286
     41 H          -3.3505    1.1781   -0.8823 H       1  LIG1        0.0474
     42 H          -4.9529    0.9154   -1.5766 H       1  LIG1        0.0474
     43 H          -6.3642   -0.5816   -0.3531 H       1  LIG1        0.0484
     44 H          -4.9185   -0.1725    0.5835 H       1  LIG1        0.0484
@<TRIPOS>BOND
     1     1     4   ar
     2     1     5   ar
     3     2     3   ar
     4     2     6   ar
     5     3     7   ar
     6     4     8   ar
     7     5    10   ar
     8     6    11   ar
     9     7    13   ar
    10     8    14   ar
    11     9    22   ar
    12     9    23   ar
    13    10    12   ar
    14    10    14   ar
    15    11    13   ar
    16    11    18    1
    17    12    15   ar
    18    12    22   ar
    19    13    24    1
    20    14    26   ar
    21    15    16   ar
    22    15    26   ar
    23    16    23   ar
    24    16    27    1
    25    17    21    1
    26    17    24   am
    27    17    25    2
    28    18    19    1
    29    19    20    1
    30    20    24    1
    31    21    27    1
    32     1    28    1
    33     2    29    1
    34     3    30    1
    35     4    31    1
    36     5    32    1
    37     6    33    1
    38     7    34    1
    39     8    35    1
    40     9    36    1
    41    18    37    1
    42    18    38    1
    43    19    39    1
    44    19    40    1
    45    20    41    1
    46    20    42    1
    47    21    43    1
    48    21    44    1
