@<TRIPOS>MOLECULE
ChEBML357869
 44 47 0 0 0
SMALL
USER_CHARGES

@<TRIPOS>ATOM
      1 C         -10.3517   -5.1842    0.4583 C.ar    1  LIG1       -0.0359
      2 C         -11.6954   -5.5037    0.6801 C.ar    1  LIG1       -0.0301
      3 C          -3.0431    0.3351   -3.1912 C.ar    1  LIG1       -0.0303
      4 C          -1.9463   -1.0348   -1.5305 C.ar    1  LIG1       -0.0303
      5 C          -1.8004    0.7212   -3.6933 C.ar    1  LIG1       -0.0409
      6 C          -0.7037   -0.6487   -2.0328 C.ar    1  LIG1       -0.0409
      7 C         -12.0423   -3.4680    1.9700 C.ar    1  LIG1       -0.0043
      8 C         -10.6948   -3.1315    1.7572 C.ar    1  LIG1        0.0894
      9 C          -9.8904   -3.9902    1.0132 C.ar    1  LIG1        0.0579
     10 C          -3.1161   -0.5429   -2.1097 C.ar    1  LIG1        0.0754
     11 C         -12.5275   -4.6622    1.4221 C.ar    1  LIG1        0.0736
     12 C          -0.6307    0.2294   -3.1142 C.ar    1  LIG1        0.0408
     13 C          -8.7671   -2.2143    1.7060 C.ar    1  LIG1        0.1863
     14 C          -7.7018   -1.2801    1.9247 C.2     1  LIG1        0.2790
     15 C          -6.6375   -0.2866   -1.3585 C.3     1  LIG1       -0.0102
     16 C          -4.9068    0.3472    0.3605 C.3     1  LIG1       -0.0102
     17 C          -7.0293   -1.4779   -0.4898 C.3     1  LIG1        0.0170
     18 C          -5.3284   -0.8602    1.1915 C.3     1  LIG1        0.0170
     19 C          -5.1797    0.1148   -1.1274 C.3     1  LIG1        0.0672
     20 N          -9.9800   -2.0339    2.1788 N.ar    1  LIG1       -0.2260
     21 N          -8.6631   -3.3785    0.9968 N.ar    1  LIG1       -0.2934
     22 N          -6.7292   -1.2095    0.9175 N.am    1  LIG1       -0.2952
     23 O          -7.6718   -0.5965    2.9466 O.2     1  LIG1       -0.2683
     24 O         -13.8321   -5.0070    1.6170 O.3     1  LIG1       -0.3608
     25 O          -4.3365   -0.9218   -1.6159 O.3     1  LIG1       -0.3427
     26 CL          0.9025    0.7067   -3.7328 Cl      1  LIG1       -0.0843
     27 H          -9.7041   -5.8357   -0.1174 H       1  LIG1        0.0644
     28 H         -12.0928   -6.4267    0.2635 H       1  LIG1        0.0651
     29 H          -3.9503    0.7222   -3.6466 H       1  LIG1        0.0651
     30 H          -1.9968   -1.7186   -0.6878 H       1  LIG1        0.0651
     31 H          -1.7584    1.4070   -4.5360 H       1  LIG1        0.0639
     32 H           0.1998   -1.0391   -1.5710 H       1  LIG1        0.0639
     33 H         -12.6922   -2.8158    2.5453 H       1  LIG1        0.0674
     34 H          -6.7975   -0.5204   -2.4178 H       1  LIG1        0.0309
     35 H          -7.2909    0.5675   -1.1365 H       1  LIG1        0.0309
     36 H          -5.4508    1.2400    0.6957 H       1  LIG1        0.0309
     37 H          -3.8438    0.5644    0.5169 H       1  LIG1        0.0309
     38 H          -8.0916   -1.7020   -0.6275 H       1  LIG1        0.0470
     39 H          -6.4636   -2.3704   -0.7824 H       1  LIG1        0.0470
     40 H          -4.7191   -1.7345    0.9335 H       1  LIG1        0.0470
     41 H          -5.1614   -0.6504    2.2507 H       1  LIG1        0.0470
     42 H          -4.9564    1.0259   -1.6955 H       1  LIG1        0.0610
     43 H          -7.8307   -3.7286    0.5411 H       1  LIG1        0.1545
     44 H         -14.2808   -4.3303    2.1471 H       1  LIG1        0.2182
@<TRIPOS>BOND
     1     1     2   ar
     2     1     9   ar
     3     2    11   ar
     4     3     5   ar
     5     3    10   ar
     6     4     6   ar
     7     4    10   ar
     8     5    12   ar
     9     6    12   ar
    10     7     8   ar
    11     7    11   ar
    12     8     9   ar
    13     8    20   ar
    14     9    21   ar
    15    10    25    1
    16    11    24    1
    17    12    26    1
    18    13    14    1
    19    13    20   ar
    20    13    21   ar
    21    14    22   am
    22    14    23    2
    23    15    17    1
    24    15    19    1
    25    16    18    1
    26    16    19    1
    27    17    22    1
    28    18    22    1
    29    19    25    1
    30     1    27    1
    31     2    28    1
    32     3    29    1
    33     4    30    1
    34     5    31    1
    35     6    32    1
    36     7    33    1
    37    15    34    1
    38    15    35    1
    39    16    36    1
    40    16    37    1
    41    17    38    1
    42    17    39    1
    43    18    40    1
    44    18    41    1
    45    19    42    1
    46    21    43    1
    47    24    44    1
