@<TRIPOS>MOLECULE
ChEBML512822
 39 41 0 0 0
SMALL
USER_CHARGES

@<TRIPOS>ATOM
      1 C          -2.0595    0.7802   -3.0756 C.ar    1  LIG1       -0.0622
      2 C         -12.3809   -4.6717    1.9283 C.ar    1  LIG1       -0.0615
      3 C          -3.0969    1.5768   -2.5910 C.ar    1  LIG1       -0.0620
      4 C          -2.0788   -0.5976   -2.8594 C.ar    1  LIG1       -0.0620
      5 C         -11.5523   -5.6050    1.3084 C.ar    1  LIG1       -0.0603
      6 C         -11.9257   -3.3754    2.1954 C.ar    1  LIG1       -0.0530
      7 C          -4.1535    0.9955   -1.8900 C.ar    1  LIG1       -0.0590
      8 C          -3.1354   -1.1790   -2.1585 C.ar    1  LIG1       -0.0590
      9 C         -10.2462   -5.2744    0.9362 C.ar    1  LIG1       -0.0402
     10 C          -9.8398   -1.8297    1.9431 C.ar    1  LIG1       -0.0262
     11 C         -10.6124   -3.0192    1.8293 C.ar    1  LIG1       -0.0022
     12 C          -4.1727   -0.3824   -1.6737 C.ar    1  LIG1       -0.0464
     13 C          -9.8047   -3.9749    1.2095 C.ar    1  LIG1        0.0378
     14 C          -8.6008   -2.0817    1.4004 C.ar    1  LIG1        0.0947
     15 C          -7.4856   -1.1957    1.2870 C.2     1  LIG1        0.2595
     16 C          -5.8184   -2.9158    2.0603 C.3     1  LIG1        0.0031
     17 C          -5.3153   -1.0119   -0.9151 C.3     1  LIG1       -0.0120
     18 C          -5.0651   -1.0807    0.5894 C.3     1  LIG1        0.0182
     19 N          -8.5894   -3.3781    0.9605 N.ar    1  LIG1       -0.3101
     20 N          -6.1649   -1.7155    1.3123 N.am    1  LIG1       -0.2995
     21 O          -7.7170    0.0254    1.1542 O.2     1  LIG1       -0.2702
     22 H          -1.2376    1.2328   -3.6227 H       1  LIG1        0.0622
     23 H         -13.3931   -4.9522    2.2077 H       1  LIG1        0.0623
     24 H          -3.0827    2.6496   -2.7601 H       1  LIG1        0.0623
     25 H          -1.2719   -1.2182   -3.2377 H       1  LIG1        0.0623
     26 H         -11.9264   -6.6061    1.1108 H       1  LIG1        0.0623
     27 H         -12.5824   -2.6575    2.6789 H       1  LIG1        0.0629
     28 H          -4.9573    1.6240   -1.5157 H       1  LIG1        0.0625
     29 H          -3.1419   -2.2533   -1.9946 H       1  LIG1        0.0625
     30 H          -9.6012   -6.0012    0.4540 H       1  LIG1        0.0642
     31 H         -10.1604   -0.8916    2.3765 H       1  LIG1        0.0651
     32 H          -5.9393   -3.7999    1.4289 H       1  LIG1        0.0433
     33 H          -6.4669   -3.0165    2.9348 H       1  LIG1        0.0433
     34 H          -4.7799   -2.8640    2.3982 H       1  LIG1        0.0433
     35 H          -5.4737   -2.0261   -1.3031 H       1  LIG1        0.0332
     36 H          -6.2433   -0.4624   -1.1189 H       1  LIG1        0.0332
     37 H          -4.1692   -1.6761    0.7916 H       1  LIG1        0.0473
     38 H          -4.9176   -0.0849    1.0204 H       1  LIG1        0.0473
     39 H          -7.8038   -3.8346    0.5174 H       1  LIG1        0.1529
@<TRIPOS>BOND
     1     1     3   ar
     2     1     4   ar
     3     2     5   ar
     4     2     6   ar
     5     3     7   ar
     6     4     8   ar
     7     5     9   ar
     8     6    11   ar
     9     7    12   ar
    10     8    12   ar
    11     9    13   ar
    12    10    11   ar
    13    10    14   ar
    14    11    13   ar
    15    12    17    1
    16    13    19   ar
    17    14    15    1
    18    14    19   ar
    19    15    20   am
    20    15    21    2
    21    16    20    1
    22    17    18    1
    23    18    20    1
    24     1    22    1
    25     2    23    1
    26     3    24    1
    27     4    25    1
    28     5    26    1
    29     6    27    1
    30     7    28    1
    31     8    29    1
    32     9    30    1
    33    10    31    1
    34    16    32    1
    35    16    33    1
    36    16    34    1
    37    17    35    1
    38    17    36    1
    39    18    37    1
    40    18    38    1
    41    19    39    1
