@<TRIPOS>MOLECULE
ChEBML37492
 58 62 0 0 0
SMALL
USER_CHARGES

@<TRIPOS>ATOM
      1 C          -1.1328   -2.8525   -3.2357 C.ar    1  LIG1       -0.0557
      2 C         -10.4842   -4.8459    0.0504 C.ar    1  LIG1       -0.0382
      3 C         -11.7880   -5.2339    0.3714 C.ar    1  LIG1       -0.0388
      4 C           0.0340   -3.1267   -3.9491 C.ar    1  LIG1       -0.0230
      5 C         -11.9664   -3.4684    2.0282 C.ar    1  LIG1       -0.0293
      6 C           0.1524   -2.6891   -1.1965 C.ar    1  LIG1       -0.0198
      7 C          -8.9652   -0.2681    3.3379 C.ar    1  LIG1        0.1180
      8 C         -10.6529   -3.0584    1.7222 C.ar    1  LIG1        0.0255
      9 C          -1.0736   -2.6337   -1.8593 C.ar    1  LIG1       -0.0397
     10 C          -9.7958   -2.0276    2.1997 C.ar    1  LIG1        0.0989
     11 C          -9.9427   -3.7555    0.7413 C.ar    1  LIG1        0.0401
     12 C          -8.5937   -2.1170    1.5071 C.ar    1  LIG1        0.0981
     13 C         -12.5194   -4.5572    1.3449 C.ar    1  LIG1        0.0333
     14 C           1.2601   -3.1821   -3.2862 C.ar    1  LIG1        0.1583
     15 C           1.3192   -2.9633   -1.9098 C.ar    1  LIG1        0.1586
     16 C          -7.5670   -1.2279    1.7729 C.ar    1  LIG1        0.1460
     17 C         -14.5439   -6.0249    1.0765 C.2     1  LIG1        0.2128
     18 C          -5.1965   -0.8443    1.8590 C.3     1  LIG1        0.0523
     19 C          -6.4214   -0.8739   -0.3076 C.3     1  LIG1        0.0523
     20 C          -3.9060   -1.1982    1.1323 C.3     1  LIG1       -0.0181
     21 C          -5.1265   -1.2229   -1.0304 C.3     1  LIG1       -0.0181
     22 C         -15.9226   -6.1422    1.6763 C.3     1  LIG1        0.0130
     23 C          -2.3288   -2.3376   -1.0906 C.3     1  LIG1        0.0117
     24 C          -2.6606   -0.8516   -1.0004 C.3     1  LIG1       -0.0301
     25 N         -10.0203   -1.0858    3.1503 N.ar    1  LIG1       -0.2341
     26 N          -7.7663   -0.2812    2.7150 N.ar    1  LIG1       -0.2194
     27 N          -8.7023   -3.1651    0.6319 N.ar    1  LIG1       -0.3097
     28 N          -6.3448   -1.3028    1.0831 N.pl3   1  LIG1       -0.3037
     29 N         -13.8195   -4.9685    1.6437 N.am    1  LIG1       -0.2856
     30 N          -3.9587   -0.6484   -0.2705 N.4     1  LIG1        0.2485
     31 O         -14.1710   -6.8008    0.2026 O.2     1  LIG1       -0.2776
     32 F           2.3800   -3.4463   -3.9716 F       1  LIG1       -0.2037
     33 F           2.4965   -3.0152   -1.2734 F       1  LIG1       -0.2037
     34 H          -2.0837   -2.8115   -3.7603 H       1  LIG1        0.0626
     35 H          -9.9154   -5.3736   -0.7079 H       1  LIG1        0.0643
     36 H         -12.2267   -6.0793   -0.1546 H       1  LIG1        0.0643
     37 H          -0.0114   -3.2968   -5.0208 H       1  LIG1        0.0654
     38 H         -12.5392   -2.9421    2.7874 H       1  LIG1        0.0650
     39 H           0.2091   -2.5186   -0.1246 H       1  LIG1        0.0657
     40 H          -9.0954    0.5034    4.0892 H       1  LIG1        0.1063
     41 H          -5.1828   -1.3181    2.8484 H       1  LIG1        0.0524
     42 H          -5.2556    0.2411    2.0130 H       1  LIG1        0.0524
     43 H          -6.5987    0.2084   -0.3591 H       1  LIG1        0.0524
     44 H          -7.2539   -1.3696   -0.8221 H       1  LIG1        0.0524
     45 H          -3.0430   -0.7487    1.6342 H       1  LIG1        0.0831
     46 H          -3.7646   -2.2827    1.0579 H       1  LIG1        0.0831
     47 H          -4.9769   -2.3067   -1.0961 H       1  LIG1        0.0831
     48 H          -5.1154   -0.7891   -2.0356 H       1  LIG1        0.0831
     49 H         -16.6282   -5.5331    1.1042 H       1  LIG1        0.0328
     50 H         -15.9074   -5.7889    2.7112 H       1  LIG1        0.0328
     51 H         -16.2472   -7.1869    1.6645 H       1  LIG1        0.0328
     52 H          -3.1673   -2.8500   -1.5807 H       1  LIG1        0.0370
     53 H          -2.2688   -2.7679   -0.0824 H       1  LIG1        0.0370
     54 H          -2.7986   -0.4235   -1.9978 H       1  LIG1        0.0818
     55 H          -1.8996   -0.2784   -0.4622 H       1  LIG1        0.0818
     56 H          -7.9768   -3.4655   -0.0044 H       1  LIG1        0.1530
     57 H         -14.3104   -4.4341    2.3694 H       1  LIG1        0.1556
     58 H          -4.1013    0.3687   -0.2019 H       1  LIG1        0.2004
@<TRIPOS>BOND
     1     1     4   ar
     2     1     9   ar
     3     2     3   ar
     4     2    11   ar
     5     3    13   ar
     6     4    14   ar
     7     5     8   ar
     8     5    13   ar
     9     6     9   ar
    10     6    15   ar
    11     7    25   ar
    12     7    26   ar
    13     8    10   ar
    14     8    11   ar
    15     9    23    1
    16    10    12   ar
    17    10    25   ar
    18    11    27   ar
    19    12    16   ar
    20    12    27   ar
    21    13    29    1
    22    14    15   ar
    23    14    32    1
    24    15    33    1
    25    16    26   ar
    26    16    28    1
    27    17    22    1
    28    17    29   am
    29    17    31    2
    30    18    20    1
    31    18    28    1
    32    19    21    1
    33    19    28    1
    34    20    30    1
    35    21    30    1
    36    23    24    1
    37    24    30    1
    38     1    34    1
    39     2    35    1
    40     3    36    1
    41     4    37    1
    42     5    38    1
    43     6    39    1
    44     7    40    1
    45    18    41    1
    46    18    42    1
    47    19    43    1
    48    19    44    1
    49    20    45    1
    50    20    46    1
    51    21    47    1
    52    21    48    1
    53    22    49    1
    54    22    50    1
    55    22    51    1
    56    23    52    1
    57    23    53    1
    58    24    54    1
    59    24    55    1
    60    27    56    1
    61    29    57    1
    62    30    58    1
