@<TRIPOS>MOLECULE
ChEBML998287
 43 47 0 0 0
SMALL
USER_CHARGES

@<TRIPOS>ATOM
      1 C          -2.4305    0.0015   -3.4496 C.ar    1  LIG1       -0.0359
      2 C          -2.1336   -0.5031   -2.1610 C.ar    1  LIG1       -0.0238
      3 C          -3.5139    0.8343   -3.2934 C.ar    1  LIG1        0.0462
      4 C          -3.0566    0.0575   -1.3092 C.ar    1  LIG1        0.1439
      5 C         -12.6185   -4.6506    1.4942 C.ar    1  LIG1       -0.0614
      6 C         -11.6479   -5.2411    0.5856 C.ar    1  LIG1       -0.0601
      7 C         -12.3328   -3.5536    2.2142 C.ar    1  LIG1       -0.0505
      8 C         -10.4133   -4.7436    0.3998 C.ar    1  LIG1       -0.0357
      9 C          -9.9406   -0.0926    3.7909 C.ar    1  LIG1        0.0860
     10 C         -11.0408   -2.9688    2.0693 C.ar    1  LIG1        0.0282
     11 C         -10.3923   -1.9245    2.5792 C.ar    1  LIG1        0.1028
     12 C          -9.0520   -1.8630    2.0051 C.ar    1  LIG1        0.1261
     13 C          -8.1801   -0.8932    2.3526 C.ar    1  LIG1        0.1185
     14 C         -10.0213   -3.5341    1.1574 C.ar    1  LIG1        0.0734
     15 C          -3.2530   -0.0798    0.1043 C.2     1  LIG1        0.2694
     16 C          -6.6216   -1.2898    0.4830 C.3     1  LIG1        0.0286
     17 C          -5.7797   -0.4092    2.6473 C.3     1  LIG1        0.0286
     18 C          -5.7336   -0.2953   -0.2593 C.3     1  LIG1        0.0303
     19 C          -4.9025    0.5847    1.8924 C.3     1  LIG1        0.0303
     20 N         -10.8266   -0.9997    3.4986 N.ar    1  LIG1       -0.2383
     21 N          -8.8846   -2.9035    1.1197 N.ar    1  LIG1       -0.2426
     22 N          -8.6644    0.0190    3.2850 N.ar    1  LIG1       -0.2921
     23 N          -6.9190   -0.8132    1.8296 N.pl3   1  LIG1       -0.3141
     24 N          -4.5709    0.0628    0.5572 N.am    1  LIG1       -0.2929
     25 O          -2.3007   -0.3088    0.8478 O.2     1  LIG1       -0.2693
     26 O          -3.9017    0.8741   -1.9916 O.2     1  LIG1       -0.3126
     27 H          -1.9192   -0.2153   -4.3763 H       1  LIG1        0.0645
     28 H          -1.3440   -1.1901   -1.8912 H       1  LIG1        0.0653
     29 H          -4.0961    1.4391   -3.9731 H       1  LIG1        0.0901
     30 H         -13.5893   -5.1281    1.5730 H       1  LIG1        0.0623
     31 H         -11.9618   -6.1271    0.0429 H       1  LIG1        0.0623
     32 H         -13.0564   -3.1149    2.8903 H       1  LIG1        0.0630
     33 H          -9.7016   -5.1942   -0.2800 H       1  LIG1        0.0645
     34 H         -10.1777    0.7010    4.5170 H       1  LIG1        0.1014
     35 H          -7.5366   -1.4526   -0.0993 H       1  LIG1        0.0485
     36 H          -6.1117   -2.2583    0.5600 H       1  LIG1        0.0485
     37 H          -5.1960   -1.3026    2.9017 H       1  LIG1        0.0485
     38 H          -6.1020    0.0462    3.5915 H       1  LIG1        0.0485
     39 H          -5.4254   -0.7130   -1.2227 H       1  LIG1        0.0486
     40 H          -6.2830    0.6324   -0.4596 H       1  LIG1        0.0486
     41 H          -5.4401    1.5285    1.7399 H       1  LIG1        0.0486
     42 H          -4.0079    0.8076    2.4787 H       1  LIG1        0.0486
     43 H          -8.0361    0.7621    3.5699 H       1  LIG1        0.1550
@<TRIPOS>BOND
     1     1     2   ar
     2     1     3   ar
     3     2     4   ar
     4     3    26   ar
     5     4    15    1
     6     4    26   ar
     7     5     6   ar
     8     5     7   ar
     9     6     8   ar
    10     7    10   ar
    11     8    14   ar
    12     9    20   ar
    13     9    22   ar
    14    10    11   ar
    15    10    14   ar
    16    11    12   ar
    17    11    20   ar
    18    12    13   ar
    19    12    21   ar
    20    13    22   ar
    21    13    23    1
    22    14    21   ar
    23    15    24   am
    24    15    25    2
    25    16    18    1
    26    16    23    1
    27    17    19    1
    28    17    23    1
    29    18    24    1
    30    19    24    1
    31     1    27    1
    32     2    28    1
    33     3    29    1
    34     5    30    1
    35     6    31    1
    36     7    32    1
    37     8    33    1
    38     9    34    1
    39    16    35    1
    40    16    36    1
    41    17    37    1
    42    17    38    1
    43    18    39    1
    44    18    40    1
    45    19    41    1
    46    19    42    1
    47    22    43    1
