@<TRIPOS>MOLECULE
ChEBML300215
 44 46 0 0 0
SMALL
USER_CHARGES

@<TRIPOS>ATOM
      1 C         -10.2993   -5.1957    0.5132 C.ar    1  LIG1       -0.0387
      2 C         -11.6319   -5.5580    0.7299 C.ar    1  LIG1       -0.0416
      3 C         -12.0483   -3.5092    1.9654 C.ar    1  LIG1       -0.0343
      4 C          -9.9359   -1.9882    2.1335 C.ar    1  LIG1       -0.0262
      5 C         -10.7090   -3.1229    1.7597 C.ar    1  LIG1       -0.0007
      6 C          -9.8671   -3.9733    1.0398 C.ar    1  LIG1        0.0379
      7 C         -12.4947   -4.7292    1.4445 C.ar    1  LIG1        0.0413
      8 C          -8.6633   -2.1685    1.6427 C.ar    1  LIG1        0.0945
      9 C          -7.4901   -1.2659    1.7688 C.2     1  LIG1        0.2576
     10 C          -4.5827   -0.7826   -0.5522 C.2     1  LIG1        0.2319
     11 C          -2.1002    0.5491   -3.7667 C.3     1  LIG1       -0.0498
     12 C          -3.2384   -0.3148   -3.1848 C.3     1  LIG1       -0.0344
     13 C          -1.8678    1.0719   -2.3338 C.3     1  LIG1       -0.0344
     14 C          -2.4968   -0.2452   -1.8336 C.3     1  LIG1        0.0254
     15 C          -5.3738   -0.5123    0.7155 C.3     1  LIG1        0.0887
     16 C          -2.8952    0.8338    0.3463 C.3     1  LIG1        0.0377
     17 C          -1.5563    0.3575    0.8792 C.3     1  LIG1        0.0589
     18 N          -8.6316   -3.3685    0.9844 N.ar    1  LIG1       -0.3101
     19 N          -6.5689   -1.3064    0.7269 N.am    1  LIG1       -0.3013
     20 N          -3.3723   -0.0912   -0.6743 N.am    1  LIG1       -0.2952
     21 O          -7.3802   -0.5608    2.7685 O.2     1  LIG1       -0.2704
     22 O          -5.0044   -1.5695   -1.4039 O.2     1  LIG1       -0.2756
     23 O          -1.0781    1.2814    1.8485 O.3     1  LIG1       -0.3947
     24 CL        -14.1311   -5.2096    1.6896 Cl      1  LIG1       -0.0843
     25 H          -9.6285   -5.8422   -0.0427 H       1  LIG1        0.0643
     26 H         -11.9853   -6.5052    0.3282 H       1  LIG1        0.0639
     27 H         -12.7201   -2.8621    2.5234 H       1  LIG1        0.0645
     28 H         -10.2783   -1.1330    2.7009 H       1  LIG1        0.0651
     29 H          -1.2625   -0.0294   -4.1730 H       1  LIG1        0.0268
     30 H          -2.4023    1.2991   -4.5020 H       1  LIG1        0.0268
     31 H          -4.2142    0.1849   -3.1774 H       1  LIG1        0.0285
     32 H          -3.3550   -1.3061   -3.6312 H       1  LIG1        0.0285
     33 H          -0.8249    1.2532   -2.0602 H       1  LIG1        0.0285
     34 H          -2.4576    1.9625   -2.0866 H       1  LIG1        0.0285
     35 H          -1.7806   -1.0555   -1.6665 H       1  LIG1        0.0506
     36 H          -4.7863   -0.7866    1.5954 H       1  LIG1        0.0567
     37 H          -5.6754    0.5373    0.7600 H       1  LIG1        0.0567
     38 H          -3.6447    0.8823    1.1425 H       1  LIG1        0.0493
     39 H          -2.7933    1.8228   -0.1105 H       1  LIG1        0.0493
     40 H          -0.8245    0.3113    0.0667 H       1  LIG1        0.0580
     41 H          -1.6364   -0.6306    1.3440 H       1  LIG1        0.0580
     42 H          -7.8205   -3.7575    0.5235 H       1  LIG1        0.1529
     43 H          -6.7038   -1.9670   -0.0379 H       1  LIG1        0.1503
     44 H          -0.2248    0.9411    2.1621 H       1  LIG1        0.2101
@<TRIPOS>BOND
     1     1     2   ar
     2     1     6   ar
     3     2     7   ar
     4     3     5   ar
     5     3     7   ar
     6     4     5   ar
     7     4     8   ar
     8     5     6   ar
     9     6    18   ar
    10     7    24    1
    11     8     9    1
    12     8    18   ar
    13     9    19   am
    14     9    21    2
    15    10    15    1
    16    10    20   am
    17    10    22    2
    18    11    12    1
    19    11    13    1
    20    12    14    1
    21    13    14    1
    22    14    20    1
    23    15    19    1
    24    16    17    1
    25    16    20    1
    26    17    23    1
    27     1    25    1
    28     2    26    1
    29     3    27    1
    30     4    28    1
    31    11    29    1
    32    11    30    1
    33    12    31    1
    34    12    32    1
    35    13    33    1
    36    13    34    1
    37    14    35    1
    38    15    36    1
    39    15    37    1
    40    16    38    1
    41    16    39    1
    42    17    40    1
    43    17    41    1
    44    18    42    1
    45    19    43    1
    46    23    44    1
