@<TRIPOS>MOLECULE
ChEBML809553
 41 44 0 0 0
SMALL
USER_CHARGES

@<TRIPOS>ATOM
      1 C          -2.9278    0.0598   -3.7438 C.ar    1  LIG1       -0.0359
      2 C         -10.0811   -5.1635    0.5602 C.ar    1  LIG1       -0.0373
      3 C         -11.4194   -5.4946    0.3292 C.ar    1  LIG1       -0.0244
      4 C          -2.4575   -0.6487   -2.6124 C.ar    1  LIG1       -0.0238
      5 C         -12.1714   -3.4626    1.4258 C.ar    1  LIG1       -0.0171
      6 C         -10.1961   -2.0027    2.3040 C.ar    1  LIG1       -0.0261
      7 C          -3.9219    0.8932   -3.2866 C.ar    1  LIG1        0.0462
      8 C         -10.8298   -3.1079    1.6701 C.ar    1  LIG1        0.0007
      9 C          -9.8177   -3.9649    1.2326 C.ar    1  LIG1        0.0380
     10 C         -12.4501   -4.6587    0.7545 C.ar    1  LIG1        0.1235
     11 C          -8.8370   -2.2064    2.2407 C.ar    1  LIG1        0.0947
     12 C          -3.1977   -0.1975   -1.5445 C.ar    1  LIG1        0.1439
     13 C          -7.7873   -1.3687    2.7426 C.2     1  LIG1        0.2599
     14 C          -3.1722   -0.5469   -0.1543 C.2     1  LIG1        0.2694
     15 C          -6.5053   -1.6950    0.5954 C.3     1  LIG1        0.0304
     16 C          -5.2776   -1.1905    2.6859 C.3     1  LIG1        0.0304
     17 C          -5.6926   -0.6204   -0.1236 C.3     1  LIG1        0.0304
     18 C          -4.4763   -0.1176    1.9555 C.3     1  LIG1        0.0304
     19 N          -8.6185   -3.3923    1.5923 N.ar    1  LIG1       -0.3101
     20 N          -6.5755   -1.4156    2.0401 N.am    1  LIG1       -0.2936
     21 N          -4.3893   -0.4333    0.5284 N.am    1  LIG1       -0.2929
     22 O          -7.9710   -0.6635    3.7332 O.2     1  LIG1       -0.2701
     23 O          -2.1280   -0.9205    0.3772 O.2     1  LIG1       -0.2693
     24 O          -4.0925    0.7426   -1.9470 O.2     1  LIG1       -0.3126
     25 F         -13.7234   -5.0029    0.5180 F       1  LIG1       -0.2069
     26 H          -2.5855   -0.0267   -4.7649 H       1  LIG1        0.0645
     27 H          -9.2790   -5.8151    0.2291 H       1  LIG1        0.0644
     28 H         -11.6588   -6.4193   -0.1897 H       1  LIG1        0.0654
     29 H          -1.6761   -1.3948   -2.5836 H       1  LIG1        0.0653
     30 H         -12.9847   -2.8203    1.7511 H       1  LIG1        0.0660
     31 H         -10.6864   -1.1513    2.7573 H       1  LIG1        0.0651
     32 H          -4.5697    1.6152   -3.7621 H       1  LIG1        0.0901
     33 H          -7.4988   -1.7659    0.1462 H       1  LIG1        0.0486
     34 H          -6.0210   -2.6729    0.4870 H       1  LIG1        0.0486
     35 H          -4.7428   -2.1476    2.6629 H       1  LIG1        0.0486
     36 H          -5.4076   -0.9095    3.7356 H       1  LIG1        0.0486
     37 H          -5.5861   -0.8856   -1.1783 H       1  LIG1        0.0486
     38 H          -6.2131    0.3440   -0.0775 H       1  LIG1        0.0486
     39 H          -4.9713    0.8571    2.0413 H       1  LIG1        0.0486
     40 H          -3.4801   -0.0260    2.3993 H       1  LIG1        0.0486
     41 H          -7.7097   -3.7931    1.4042 H       1  LIG1        0.1529
@<TRIPOS>BOND
     1     1     4   ar
     2     1     7   ar
     3     2     3   ar
     4     2     9   ar
     5     3    10   ar
     6     4    12   ar
     7     5     8   ar
     8     5    10   ar
     9     6     8   ar
    10     6    11   ar
    11     7    24   ar
    12     8     9   ar
    13     9    19   ar
    14    10    25    1
    15    11    13    1
    16    11    19   ar
    17    12    14    1
    18    12    24   ar
    19    13    20   am
    20    13    22    2
    21    14    21   am
    22    14    23    2
    23    15    17    1
    24    15    20    1
    25    16    18    1
    26    16    20    1
    27    17    21    1
    28    18    21    1
    29     1    26    1
    30     2    27    1
    31     3    28    1
    32     4    29    1
    33     5    30    1
    34     6    31    1
    35     7    32    1
    36    15    33    1
    37    15    34    1
    38    16    35    1
    39    16    36    1
    40    17    37    1
    41    17    38    1
    42    18    39    1
    43    18    40    1
    44    19    41    1
