@<TRIPOS>MOLECULE
ChEBML406357
 41 43 0 0 0
SMALL
USER_CHARGES

@<TRIPOS>ATOM
      1 C          -2.8348    1.6302   -2.6008 C.ar    1  LIG1       -0.0589
      2 C          -9.9155   -1.6778    1.6310 C.ar    1  LIG1       -0.0494
      3 C          -8.2751   -3.4458    1.5289 C.ar    1  LIG1       -0.0494
      4 C         -10.9079   -2.5914    1.3417 C.ar    1  LIG1       -0.0585
      5 C          -9.2777   -4.3501    1.2457 C.ar    1  LIG1       -0.0585
      6 C          -3.4266    1.0539   -1.4943 C.ar    1  LIG1       -0.0408
      7 C          -2.3558    0.8336   -3.6248 C.ar    1  LIG1       -0.0434
      8 C          -3.0536   -1.1265   -2.4362 C.ar    1  LIG1       -0.0222
      9 C          -8.5887   -2.1002    1.7267 C.ar    1  LIG1        0.0372
     10 C         -10.5902   -3.9239    1.1467 C.ar    1  LIG1       -0.0511
     11 C          -3.5404   -0.3283   -1.4094 C.ar    1  LIG1        0.0301
     12 C          -2.4673   -0.5433   -3.5440 C.ar    1  LIG1        0.0424
     13 C          -7.5201   -1.1264    2.0360 C.2     1  LIG1        0.2456
     14 C          -4.5397    0.1841    0.5958 C.3     1  LIG1        0.0274
     15 C          -5.3640   -1.5682   -0.7623 C.3     1  LIG1        0.0274
     16 C          -5.1846   -0.3887    1.8621 C.3     1  LIG1        0.0302
     17 C          -6.0617   -2.2607    0.4187 C.3     1  LIG1        0.0302
     18 C         -11.6795   -4.9164    0.8310 C.3     1  LIG1       -0.0398
     19 N          -4.1381   -0.9139   -0.2911 N.pl3   1  LIG1       -0.3276
     20 N          -6.3072   -1.2519    1.4618 N.am    1  LIG1       -0.2947
     21 O          -7.7353   -0.2127    2.8082 O.2     1  LIG1       -0.2716
     22 CL         -1.8651   -1.5393   -4.8320 Cl      1  LIG1       -0.0842
     23 H          -2.7463    2.7046   -2.6669 H       1  LIG1        0.0624
     24 H         -10.1648   -0.6379    1.7826 H       1  LIG1        0.0631
     25 H          -7.2503   -3.7789    1.6016 H       1  LIG1        0.0631
     26 H         -11.9349   -2.2659    1.2670 H       1  LIG1        0.0625
     27 H          -9.0369   -5.3924    1.0968 H       1  LIG1        0.0625
     28 H          -3.8009    1.6770   -0.6956 H       1  LIG1        0.0642
     29 H          -1.8941    1.2871   -4.4894 H       1  LIG1        0.0638
     30 H          -3.1366   -2.2014   -2.3712 H       1  LIG1        0.0658
     31 H          -5.2567    0.8232    0.0805 H       1  LIG1        0.0485
     32 H          -3.6620    0.7699    0.8685 H       1  LIG1        0.0485
     33 H          -6.0306   -0.8220   -1.1946 H       1  LIG1        0.0485
     34 H          -5.1112   -2.3108   -1.5191 H       1  LIG1        0.0485
     35 H          -5.5520    0.4252    2.4871 H       1  LIG1        0.0486
     36 H          -4.4502   -0.9743    2.4152 H       1  LIG1        0.0486
     37 H          -5.4230   -3.0502    0.8147 H       1  LIG1        0.0486
     38 H          -7.0096   -2.6857    0.0886 H       1  LIG1        0.0486
     39 H         -12.0744   -5.3298    1.7590 H       1  LIG1        0.0280
     40 H         -12.4801   -4.4160    0.2863 H       1  LIG1        0.0280
     41 H         -11.2716   -5.7211    0.2193 H       1  LIG1        0.0280
@<TRIPOS>BOND
     1     1     6   ar
     2     1     7   ar
     3     2     4   ar
     4     2     9   ar
     5     3     5   ar
     6     3     9   ar
     7     4    10   ar
     8     5    10   ar
     9     6    11   ar
    10     7    12   ar
    11     8    11   ar
    12     8    12   ar
    13     9    13    1
    14    10    18    1
    15    11    19    1
    16    12    22    1
    17    13    20   am
    18    13    21    2
    19    14    16    1
    20    14    19    1
    21    15    17    1
    22    15    19    1
    23    16    20    1
    24    17    20    1
    25     1    23    1
    26     2    24    1
    27     3    25    1
    28     4    26    1
    29     5    27    1
    30     6    28    1
    31     7    29    1
    32     8    30    1
    33    14    31    1
    34    14    32    1
    35    15    33    1
    36    15    34    1
    37    16    35    1
    38    16    36    1
    39    17    37    1
    40    17    38    1
    41    18    39    1
    42    18    40    1
    43    18    41    1
