@<TRIPOS>MOLECULE
ChEBML232751
 38 40 0 0 0
SMALL
USER_CHARGES

@<TRIPOS>ATOM
      1 C          -4.3211   -2.5617    0.2268 C.ar    1  LIG1       -0.0584
      2 C          -5.4873   -2.4011    0.9749 C.ar    1  LIG1       -0.0439
      3 C         -10.2388   -5.0044    0.2987 C.ar    1  LIG1       -0.0376
      4 C          -3.9276   -1.5711   -0.6730 C.ar    1  LIG1       -0.0247
      5 C         -11.4981   -5.4892    0.6637 C.ar    1  LIG1       -0.0299
      6 C         -11.8138   -3.6582    2.2273 C.ar    1  LIG1       -0.0226
      7 C          -9.7835   -2.0215    2.2837 C.ar    1  LIG1       -0.0275
      8 C         -10.5473   -3.1506    1.8755 C.ar    1  LIG1        0.0003
      9 C          -6.2601   -1.2498    0.8234 C.ar    1  LIG1        0.1036
     10 C          -9.7906   -3.8340    0.9213 C.ar    1  LIG1        0.0379
     11 C          -5.8666   -0.2591   -0.0764 C.ar    1  LIG1        0.3041
     12 C         -12.2751   -4.8281    1.6128 C.ar    1  LIG1        0.0753
     13 C          -4.7004   -0.4197   -0.8245 C.ar    1  LIG1        0.1528
     14 C          -8.5997   -2.0411    1.5828 C.ar    1  LIG1        0.0800
     15 C          -7.5135   -1.1156    1.6510 C.2     1  LIG1        0.2135
     16 C         -13.9150   -6.5197    1.2889 C.3     1  LIG1        0.0422
     17 C          -3.0890    0.2767   -2.4289 C.3     1  LIG1        0.0425
     18 N          -8.6133   -3.1379    0.7634 N.ar    1  LIG1       -0.3112
     19 N          -6.6517    0.9193   -0.2380 N.pl3   1  LIG1        0.1059
     20 O          -7.5493   -0.1258    2.4188 O.2     1  LIG1       -0.2868
     21 O          -7.6962    1.0455    0.4412 O.2     1  LIG1        0.0315
     22 O          -6.2712    1.7901   -1.0534 O.2     1  LIG1       -0.5802
     23 O         -13.4990   -5.3256    1.9478 O.3     1  LIG1       -0.3493
     24 O          -4.2942    0.5328   -1.7118 O.3     1  LIG1       -0.3428
     25 H          -3.7189   -3.4577    0.3449 H       1  LIG1        0.0624
     26 H          -5.7831   -3.1812    1.6715 H       1  LIG1        0.0633
     27 H          -9.6347   -5.5195   -0.4406 H       1  LIG1        0.0643
     28 H          -3.0173   -1.7019   -1.2522 H       1  LIG1        0.0653
     29 H         -11.8700   -6.3973    0.1948 H       1  LIG1        0.0651
     30 H         -12.4261   -3.1481    2.9660 H       1  LIG1        0.0657
     31 H         -10.0730   -1.2766    3.0132 H       1  LIG1        0.0651
     32 H         -14.9064   -6.8079    1.6468 H       1  LIG1        0.0535
     33 H         -13.1965   -7.3180    1.4916 H       1  LIG1        0.0535
     34 H         -13.9579   -6.3355    0.2128 H       1  LIG1        0.0535
     35 H          -2.8793    1.1126   -3.1008 H       1  LIG1        0.0535
     36 H          -3.1945   -0.6479   -3.0022 H       1  LIG1        0.0535
     37 H          -2.2674    0.1697   -1.7167 H       1  LIG1        0.0535
     38 H          -7.8690   -3.4014    0.1324 H       1  LIG1        0.1529
@<TRIPOS>BOND
     1     1     2   ar
     2     1     4   ar
     3     2     9   ar
     4     3     5   ar
     5     3    10   ar
     6     4    13   ar
     7     5    12   ar
     8     6     8   ar
     9     6    12   ar
    10     7     8   ar
    11     7    14   ar
    12     8    10   ar
    13     9    11   ar
    14     9    15    1
    15    10    18   ar
    16    11    13   ar
    17    11    19    1
    18    12    23    1
    19    13    24    1
    20    14    15    1
    21    14    18   ar
    22    15    20    2
    23    16    23    1
    24    17    24    1
    25    19    21    2
    26    19    22    2
    27     1    25    1
    28     2    26    1
    29     3    27    1
    30     4    28    1
    31     5    29    1
    32     6    30    1
    33     7    31    1
    34    16    32    1
    35    16    33    1
    36    16    34    1
    37    17    35    1
    38    17    36    1
    39    17    37    1
    40    18    38    1
