@<TRIPOS>MOLECULE
ChEBML211058
 41 44 0 0 0
SMALL
USER_CHARGES

@<TRIPOS>ATOM
      1 C          -1.8270    0.9517   -3.8118 C.ar    1  LIG1       -0.0616
      2 C          -2.9635    1.6048   -3.3082 C.ar    1  LIG1       -0.0619
      3 C          -1.4558   -0.3066   -3.3323 C.ar    1  LIG1       -0.0547
      4 C          -8.3692   -3.4401    2.0200 C.ar    1  LIG1       -0.0486
      5 C          -9.6472   -1.6295    1.0580 C.ar    1  LIG1       -0.0486
      6 C          -3.7478    1.0103   -2.3170 C.ar    1  LIG1       -0.0575
      7 C          -9.4536   -4.2994    1.8431 C.ar    1  LIG1       -0.0472
      8 C         -10.7316   -2.4888    0.8810 C.ar    1  LIG1       -0.0472
      9 C          -2.2392   -0.8880   -2.3498 C.ar    1  LIG1       -0.0218
     10 C          -8.4661   -2.1051    1.6275 C.ar    1  LIG1        0.0373
     11 C          -3.3757   -0.2390   -1.8443 C.ar    1  LIG1       -0.0306
     12 C         -10.6348   -3.8238    1.2736 C.ar    1  LIG1        0.0175
     13 C          -2.0806   -2.1686   -1.6868 C.2     1  LIG1       -0.0578
     14 C          -3.0830   -2.3025   -0.8055 C.2     1  LIG1       -0.0732
     15 C          -7.3318   -1.2062    1.8125 C.2     1  LIG1        0.2455
     16 C          -4.0373   -0.4075    0.5905 C.3     1  LIG1       -0.0239
     17 C          -5.4634   -1.5120   -1.1972 C.3     1  LIG1       -0.0239
     18 C          -4.7974   -1.2155    1.6436 C.3     1  LIG1        0.0156
     19 C          -6.1866   -2.2852   -0.0925 C.3     1  LIG1        0.0156
     20 C          -4.0316   -1.1040   -0.7877 C.3     1  LIG1        0.0171
     21 N          -6.1469   -1.5400    1.1650 N.am    1  LIG1       -0.2977
     22 O          -7.5284   -0.2294    2.5293 O.2     1  LIG1       -0.2716
     23 BR        -12.1040   -4.9882    1.0340 Br      1  LIG1       -0.0508
     24 H          -1.2310    1.4316   -4.5834 H       1  LIG1        0.0623
     25 H          -3.2350    2.5832   -3.6954 H       1  LIG1        0.0623
     26 H          -0.5762   -0.8062   -3.7245 H       1  LIG1        0.0629
     27 H          -7.4536   -3.8212    2.4648 H       1  LIG1        0.0631
     28 H          -9.7335   -0.5910    0.7484 H       1  LIG1        0.0631
     29 H          -4.6244    1.5206   -1.9326 H       1  LIG1        0.0626
     30 H          -9.3618   -5.3368    2.1545 H       1  LIG1        0.0635
     31 H         -11.6448   -2.1024    0.4357 H       1  LIG1        0.0635
     32 H          -1.2902   -2.8737   -1.8832 H       1  LIG1        0.0626
     33 H          -3.2048   -3.1722   -0.1738 H       1  LIG1        0.0585
     34 H          -4.5164    0.5773    0.5014 H       1  LIG1        0.0295
     35 H          -3.0143   -0.2215    0.9429 H       1  LIG1        0.0295
     36 H          -5.4558   -2.1126   -2.1162 H       1  LIG1        0.0295
     37 H          -6.0494   -0.6106   -1.4233 H       1  LIG1        0.0295
     38 H          -4.2877   -2.1617    1.8578 H       1  LIG1        0.0470
     39 H          -4.8287   -0.6510    2.5789 H       1  LIG1        0.0470
     40 H          -7.2216   -2.4748   -0.3951 H       1  LIG1        0.0470
     41 H          -5.7156   -3.2591    0.0822 H       1  LIG1        0.0470
@<TRIPOS>BOND
     1     1     2   ar
     2     1     3   ar
     3     2     6   ar
     4     3     9   ar
     5     4     7   ar
     6     4    10   ar
     7     5     8   ar
     8     5    10   ar
     9     6    11   ar
    10     7    12   ar
    11     8    12   ar
    12     9    11   ar
    13     9    13    1
    14    10    15    1
    15    11    20    1
    16    12    23    1
    17    13    14    2
    18    14    20    1
    19    15    21   am
    20    15    22    2
    21    16    18    1
    22    16    20    1
    23    17    19    1
    24    17    20    1
    25    18    21    1
    26    19    21    1
    27     1    24    1
    28     2    25    1
    29     3    26    1
    30     4    27    1
    31     5    28    1
    32     6    29    1
    33     7    30    1
    34     8    31    1
    35    13    32    1
    36    14    33    1
    37    16    34    1
    38    16    35    1
    39    17    36    1
    40    17    37    1
    41    18    38    1
    42    18    39    1
    43    19    40    1
    44    19    41    1
