@<TRIPOS>MOLECULE
ChEBML1137480
 52 55 0 0 0
SMALL
USER_CHARGES

@<TRIPOS>ATOM
      1 C          -3.6528    1.2135   -3.2081 C.ar    1  LIG1       -0.0602
      2 C          -2.3856    0.8225   -3.5989 C.ar    1  LIG1       -0.0595
      3 C         -12.9823   -2.5091    1.8875 C.ar    1  LIG1       -0.0525
      4 C         -12.5294   -4.6775    0.9380 C.ar    1  LIG1       -0.0525
      5 C         -14.3330   -2.7930    1.8769 C.ar    1  LIG1       -0.0586
      6 C         -13.8818   -4.9534    0.9376 C.ar    1  LIG1       -0.0586
      7 C          -4.2546    0.6236   -2.1125 C.ar    1  LIG1       -0.0382
      8 C          -1.7136   -0.1605   -2.8958 C.ar    1  LIG1       -0.0299
      9 C         -10.0163   -1.9652    1.8824 C.ar    1  LIG1       -0.0059
     10 C         -12.0710   -3.4531    1.4195 C.ar    1  LIG1        0.0018
     11 C         -14.7823   -4.0124    1.4031 C.ar    1  LIG1       -0.0511
     12 C          -3.5887   -0.3671   -1.4056 C.ar    1  LIG1        0.0594
     13 C          -2.3094   -0.7563   -1.7967 C.ar    1  LIG1        0.0957
     14 C         -10.6172   -3.1532    1.4279 C.ar    1  LIG1        0.0905
     15 C          -8.6595   -2.1479    1.6952 C.ar    1  LIG1        0.1123
     16 C          -7.5890   -1.1895    2.0144 C.2     1  LIG1        0.2614
     17 C          -4.5882    0.1136    0.6099 C.3     1  LIG1        0.0275
     18 C          -5.4310   -1.5985   -0.7876 C.3     1  LIG1        0.0275
     19 C          -5.2439   -0.4779    1.8619 C.3     1  LIG1        0.0303
     20 C          -6.1423   -2.3028    0.3722 C.3     1  LIG1        0.0303
     21 C         -16.2582   -4.3168    1.3945 C.3     1  LIG1       -0.0398
     22 C          -0.3818   -1.8951   -1.7408 C.3     1  LIG1        0.0423
     23 N          -9.6561   -3.9509    1.0123 N.ar    1  LIG1       -0.1834
     24 N          -8.5081   -3.3918    1.1497 N.ar    1  LIG1       -0.2326
     25 N          -4.1982   -0.9701   -0.2993 N.pl3   1  LIG1       -0.3255
     26 N          -6.3764   -1.3178    1.4403 N.am    1  LIG1       -0.2935
     27 O          -7.7986   -0.2817    2.7962 O.2     1  LIG1       -0.2701
     28 O          -1.6494   -1.7230   -1.1039 O.3     1  LIG1       -0.3473
     29 H          -4.1736    1.9819   -3.7601 H       1  LIG1        0.0623
     30 H          -1.9191    1.2865   -4.4555 H       1  LIG1        0.0623
     31 H         -12.6324   -1.5571    2.2584 H       1  LIG1        0.0630
     32 H         -11.8275   -5.4111    0.5699 H       1  LIG1        0.0630
     33 H         -15.0403   -2.0618    2.2396 H       1  LIG1        0.0625
     34 H         -14.2379   -5.9041    0.5692 H       1  LIG1        0.0625
     35 H          -5.2445    0.9311   -1.8092 H       1  LIG1        0.0643
     36 H          -0.7238   -0.4634   -3.2039 H       1  LIG1        0.0651
     37 H         -10.5101   -1.0957    2.2906 H       1  LIG1        0.0668
     38 H          -3.7039    0.6822    0.8974 H       1  LIG1        0.0485
     39 H          -5.2954    0.7728    0.1067 H       1  LIG1        0.0485
     40 H          -6.0869   -0.8347   -1.2055 H       1  LIG1        0.0485
     41 H          -5.1856   -2.3277   -1.5596 H       1  LIG1        0.0485
     42 H          -4.5187   -1.0846    2.4043 H       1  LIG1        0.0486
     43 H          -5.6026    0.3270    2.5034 H       1  LIG1        0.0486
     44 H          -5.5167   -3.1117    0.7494 H       1  LIG1        0.0486
     45 H          -7.0953   -2.7049    0.0284 H       1  LIG1        0.0486
     46 H         -16.6901   -3.9948    0.4469 H       1  LIG1        0.0280
     47 H         -16.4086   -5.3895    1.5164 H       1  LIG1        0.0280
     48 H         -16.7434   -3.7864    2.2139 H       1  LIG1        0.0280
     49 H           0.1691   -0.9550   -1.7135 H       1  LIG1        0.0535
     50 H           0.1862   -2.6644   -1.2178 H       1  LIG1        0.0535
     51 H          -0.5339   -2.1971   -2.7771 H       1  LIG1        0.0535
     52 H          -7.6598   -3.7936    0.9053 H       1  LIG1        0.1757
@<TRIPOS>BOND
     1     1     2   ar
     2     1     7   ar
     3     2     8   ar
     4     3     5   ar
     5     3    10   ar
     6     4     6   ar
     7     4    10   ar
     8     5    11   ar
     9     6    11   ar
    10     7    12   ar
    11     8    13   ar
    12     9    14   ar
    13     9    15   ar
    14    10    14    1
    15    11    21    1
    16    12    13   ar
    17    12    25    1
    18    13    28    1
    19    14    23   ar
    20    15    16    1
    21    15    24   ar
    22    16    26   am
    23    16    27    2
    24    17    19    1
    25    17    25    1
    26    18    20    1
    27    18    25    1
    28    19    26    1
    29    20    26    1
    30    22    28    1
    31    23    24   ar
    32     1    29    1
    33     2    30    1
    34     3    31    1
    35     4    32    1
    36     5    33    1
    37     6    34    1
    38     7    35    1
    39     8    36    1
    40     9    37    1
    41    17    38    1
    42    17    39    1
    43    18    40    1
    44    18    41    1
    45    19    42    1
    46    19    43    1
    47    20    44    1
    48    20    45    1
    49    21    46    1
    50    21    47    1
    51    21    48    1
    52    22    49    1
    53    22    50    1
    54    22    51    1
    55    24    52    1
