@<TRIPOS>MOLECULE
ChEBML232955
 40 42 0 0 0
SMALL
USER_CHARGES

@<TRIPOS>ATOM
      1 C          -6.7087   -1.4672   -0.5620 C.ar    1  LIG1       -0.0482
      2 C         -10.2182   -5.2436    0.5955 C.ar    1  LIG1       -0.0376
      3 C          -5.6264   -1.4234   -1.4407 C.ar    1  LIG1       -0.0284
      4 C         -11.5500   -5.6439    0.7366 C.ar    1  LIG1       -0.0299
      5 C         -12.1410   -3.5204    1.7554 C.ar    1  LIG1       -0.0226
      6 C         -10.1063   -1.9008    1.9588 C.ar    1  LIG1       -0.0275
      7 C          -5.2873   -0.6838    1.2278 C.ar    1  LIG1       -0.0179
      8 C         -10.8042   -3.0948    1.6237 C.ar    1  LIG1        0.0003
      9 C          -6.5392   -1.0972    0.7722 C.ar    1  LIG1        0.0266
     10 C          -9.8756   -3.9644    1.0479 C.ar    1  LIG1        0.0379
     11 C         -12.4983   -4.7972    1.3073 C.ar    1  LIG1        0.0753
     12 C          -4.3744   -1.0100   -0.9853 C.ar    1  LIG1        0.1048
     13 C          -4.2049   -0.6401    0.3490 C.ar    1  LIG1        0.1055
     14 C          -8.7919   -2.0657    1.5872 C.ar    1  LIG1        0.0797
     15 C          -7.7100   -1.1424    1.7217 C.2     1  LIG1        0.2067
     16 C         -14.0931   -6.5263    0.9572 C.3     1  LIG1        0.0422
     17 C          -3.1152    0.2478   -2.5626 C.3     1  LIG1        0.0424
     18 C          -2.1175   -1.2388    1.3184 C.3     1  LIG1        0.0424
     19 N          -8.6625   -3.3134    1.0386 N.ar    1  LIG1       -0.3112
     20 O          -7.6797   -0.3070    2.6552 O.2     1  LIG1       -0.2871
     21 O         -13.7892   -5.2163    1.4313 O.3     1  LIG1       -0.3493
     22 O          -3.3253   -0.9716   -1.8535 O.3     1  LIG1       -0.3466
     23 O          -2.9880   -0.2321    0.8055 O.3     1  LIG1       -0.3465
     24 H          -7.6797   -1.7908   -0.9280 H       1  LIG1        0.0631
     25 H          -9.4808   -5.9033    0.1508 H       1  LIG1        0.0643
     26 H          -5.7648   -1.7132   -2.4787 H       1  LIG1        0.0651
     27 H         -11.8427   -6.6334    0.3929 H       1  LIG1        0.0651
     28 H         -12.8865   -2.8657    2.1987 H       1  LIG1        0.0657
     29 H         -10.5252   -1.0176    2.4226 H       1  LIG1        0.0651
     30 H          -5.1523   -0.3923    2.2669 H       1  LIG1        0.0659
     31 H         -15.1540   -6.7350    1.1154 H       1  LIG1        0.0535
     32 H         -13.4830   -7.2588    1.4917 H       1  LIG1        0.0535
     33 H         -13.8691   -6.5785   -0.1109 H       1  LIG1        0.0535
     34 H          -2.2483    0.1434   -3.2197 H       1  LIG1        0.0535
     35 H          -2.9505    1.0606   -1.8508 H       1  LIG1        0.0535
     36 H          -4.0009    0.4665   -3.1637 H       1  LIG1        0.0535
     37 H          -1.1824   -0.7794    1.6481 H       1  LIG1        0.0535
     38 H          -1.9173   -1.9797    0.5403 H       1  LIG1        0.0535
     39 H          -2.6003   -1.7271    2.1681 H       1  LIG1        0.0535
     40 H          -7.8027   -3.7035    0.6777 H       1  LIG1        0.1529
@<TRIPOS>BOND
     1     1     3   ar
     2     1     9   ar
     3     2     4   ar
     4     2    10   ar
     5     3    12   ar
     6     4    11   ar
     7     5     8   ar
     8     5    11   ar
     9     6     8   ar
    10     6    14   ar
    11     7     9   ar
    12     7    13   ar
    13     8    10   ar
    14     9    15    1
    15    10    19   ar
    16    11    21    1
    17    12    13   ar
    18    12    22    1
    19    13    23    1
    20    14    15    1
    21    14    19   ar
    22    15    20    2
    23    16    21    1
    24    17    22    1
    25    18    23    1
    26     1    24    1
    27     2    25    1
    28     3    26    1
    29     4    27    1
    30     5    28    1
    31     6    29    1
    32     7    30    1
    33    16    31    1
    34    16    32    1
    35    16    33    1
    36    17    34    1
    37    17    35    1
    38    17    36    1
    39    18    37    1
    40    18    38    1
    41    18    39    1
    42    19    40    1
