@<TRIPOS>MOLECULE
ChEBML300293
 53 55 0 0 0
SMALL
USER_CHARGES

@<TRIPOS>ATOM
      1 C          -9.9419   -5.3695    0.7057 C.ar    1  LIG1       -0.0387
      2 C         -11.2821   -5.7665    0.7006 C.ar    1  LIG1       -0.0416
      3 C         -11.9966   -3.5670    1.4414 C.ar    1  LIG1       -0.0343
      4 C         -10.0015   -1.9200    1.7747 C.ar    1  LIG1       -0.0262
      5 C         -10.6525   -3.1440    1.4541 C.ar    1  LIG1       -0.0007
      6 C          -9.6582   -4.0532    1.0867 C.ar    1  LIG1        0.0379
      7 C         -12.2952   -4.8808    1.0623 C.ar    1  LIG1        0.0413
      8 C          -8.6496   -2.1064    1.5993 C.ar    1  LIG1        0.0945
      9 C          -7.5498   -1.1292    1.8056 C.2     1  LIG1        0.2576
     10 C          -4.5898   -0.3357   -0.2523 C.2     1  LIG1        0.2323
     11 C          -1.9512    0.1987    1.6763 C.2     1  LIG1        0.2313
     12 C          -1.7994   -0.2636   -3.5086 C.3     1  LIG1       -0.0515
     13 C          -2.6357    0.9752   -3.8409 C.3     1  LIG1       -0.0515
     14 C          -2.1729   -0.6539   -2.0809 C.3     1  LIG1       -0.0344
     15 C          -3.4686    1.2681   -2.5957 C.3     1  LIG1       -0.0344
     16 C          -2.6524    0.6547   -1.4645 C.3     1  LIG1        0.0259
     17 C          -1.0421   -0.1668    3.9832 C.3     1  LIG1        0.0024
     18 C          -1.2013    2.1245    3.0892 C.3     1  LIG1        0.0024
     19 C          -5.2725   -0.4423    1.1000 C.3     1  LIG1        0.0887
     20 C          -2.9112    1.1182    0.9424 C.3     1  LIG1        0.0915
     21 N          -8.4525   -3.3961    1.1840 N.ar    1  LIG1       -0.3101
     22 N          -6.4255   -1.2909    1.0021 N.am    1  LIG1       -0.3013
     23 N          -3.4165    0.4549   -0.2674 N.am    1  LIG1       -0.2883
     24 N          -1.4189    0.7001    2.8693 N.am    1  LIG1       -0.3067
     25 O          -7.6720   -0.2612    2.6659 O.2     1  LIG1       -0.2704
     26 O          -5.0528   -0.9116   -1.2404 O.2     1  LIG1       -0.2756
     27 O          -1.6769   -0.9170    1.2261 O.2     1  LIG1       -0.2756
     28 CL        -13.9359   -5.4068    1.0421 Cl      1  LIG1       -0.0843
     29 H          -9.1541   -6.0603    0.4244 H       1  LIG1        0.0643
     30 H         -11.5213   -6.7866    0.4074 H       1  LIG1        0.0639
     31 H         -12.7858   -2.8752    1.7243 H       1  LIG1        0.0645
     32 H         -10.4753   -1.0028    2.0985 H       1  LIG1        0.0651
     33 H          -1.9894   -1.0839   -4.2081 H       1  LIG1        0.0267
     34 H          -0.7329   -0.0185   -3.5704 H       1  LIG1        0.0267
     35 H          -1.9738    1.8197   -4.0652 H       1  LIG1        0.0267
     36 H          -3.2720    0.8147   -4.7171 H       1  LIG1        0.0267
     37 H          -2.9779   -1.3998   -2.0947 H       1  LIG1        0.0285
     38 H          -1.3294   -1.0885   -1.5357 H       1  LIG1        0.0285
     39 H          -3.6407    2.3398   -2.4546 H       1  LIG1        0.0285
     40 H          -4.4499    0.7842   -2.6805 H       1  LIG1        0.0285
     41 H          -1.8006    1.2981   -1.2138 H       1  LIG1        0.0506
     42 H           0.0019   -0.4748    3.8830 H       1  LIG1        0.0433
     43 H          -1.6727   -1.0598    3.9973 H       1  LIG1        0.0433
     44 H          -1.1633    0.3628    4.9320 H       1  LIG1        0.0433
     45 H          -2.0923    2.5768    3.5325 H       1  LIG1        0.0433
     46 H          -0.9874    2.6249    2.1409 H       1  LIG1        0.0433
     47 H          -0.3555    2.2778    3.7648 H       1  LIG1        0.0433
     48 H          -4.5953   -0.8879    1.8331 H       1  LIG1        0.0567
     49 H          -5.6146    0.5411    1.4327 H       1  LIG1        0.0567
     50 H          -3.7715    1.3520    1.5749 H       1  LIG1        0.0570
     51 H          -2.3992    2.0312    0.6280 H       1  LIG1        0.0570
     52 H          -7.5533   -3.8094    0.9779 H       1  LIG1        0.1529
     53 H          -6.3791   -2.0771    0.3547 H       1  LIG1        0.1503
@<TRIPOS>BOND
     1     1     2   ar
     2     1     6   ar
     3     2     7   ar
     4     3     5   ar
     5     3     7   ar
     6     4     5   ar
     7     4     8   ar
     8     5     6   ar
     9     6    21   ar
    10     7    28    1
    11     8     9    1
    12     8    21   ar
    13     9    22   am
    14     9    25    2
    15    10    19    1
    16    10    23   am
    17    10    26    2
    18    11    20    1
    19    11    24   am
    20    11    27    2
    21    12    13    1
    22    12    14    1
    23    13    15    1
    24    14    16    1
    25    15    16    1
    26    16    23    1
    27    17    24    1
    28    18    24    1
    29    19    22    1
    30    20    23    1
    31     1    29    1
    32     2    30    1
    33     3    31    1
    34     4    32    1
    35    12    33    1
    36    12    34    1
    37    13    35    1
    38    13    36    1
    39    14    37    1
    40    14    38    1
    41    15    39    1
    42    15    40    1
    43    16    41    1
    44    17    42    1
    45    17    43    1
    46    17    44    1
    47    18    45    1
    48    18    46    1
    49    18    47    1
    50    19    48    1
    51    19    49    1
    52    20    50    1
    53    20    51    1
    54    21    52    1
    55    22    53    1
