@<TRIPOS>MOLECULE
ChEBML198621
 39 41 0 0 0
SMALL
USER_CHARGES

@<TRIPOS>ATOM
      1 C          -1.9977    0.9248   -3.2632 C.ar    1  LIG1       -0.0422
      2 C         -10.4767   -5.0064    1.6955 C.ar    1  LIG1       -0.0392
      3 C         -11.0153   -2.6888    1.2766 C.ar    1  LIG1       -0.0392
      4 C          -1.8309   -0.4374   -3.0405 C.ar    1  LIG1       -0.0384
      5 C         -11.8161   -5.2650    1.9864 C.ar    1  LIG1       -0.0417
      6 C         -12.3547   -2.9474    1.5673 C.ar    1  LIG1       -0.0417
      7 C          -3.0968    1.5457   -2.6918 C.ar    1  LIG1        0.0292
      8 C         -10.0762   -3.7182    1.3407 C.ar    1  LIG1        0.0340
      9 C         -12.7551   -4.2356    1.9223 C.ar    1  LIG1        0.0407
     10 C          -2.7552   -1.1276   -2.2640 C.ar    1  LIG1        0.0809
     11 C          -3.8202   -0.4148   -1.7372 C.ar    1  LIG1        0.1388
     12 C          -8.1579   -2.2317    1.3627 C.2     1  LIG1        0.3050
     13 C          -4.9452   -0.6539    0.4189 C.3     1  LIG1        0.0289
     14 C          -5.8322   -1.7859   -1.6423 C.3     1  LIG1        0.0289
     15 C          -6.4346   -0.5623    0.7434 C.3     1  LIG1        0.0315
     16 C          -6.6432   -2.6137   -0.6443 C.3     1  LIG1        0.0315
     17 N          -4.0155    0.9086   -1.9318 N.ar    1  LIG1       -0.2398
     18 N          -4.7412   -1.0788   -0.9687 N.pl3   1  LIG1       -0.3115
     19 N          -7.1178   -1.8316    0.5026 N.am    1  LIG1       -0.2824
     20 N          -8.7322   -3.4587    1.0484 N.am    1  LIG1       -0.2690
     21 O          -8.5270   -1.5518    2.3258 O.2     1  LIG1       -0.2537
     22 CL        -14.4080   -4.5551    2.2811 Cl      1  LIG1       -0.0843
     23 CL         -2.5332   -2.8147   -1.9979 Cl      1  LIG1       -0.0805
     24 H          -1.2901    1.4830   -3.8654 H       1  LIG1        0.0639
     25 H          -9.7532   -5.8159    1.7489 H       1  LIG1        0.0643
     26 H         -10.7142   -1.6813    1.0011 H       1  LIG1        0.0643
     27 H          -0.9760   -0.9459   -3.4787 H       1  LIG1        0.0640
     28 H         -12.1141   -6.2735    2.2613 H       1  LIG1        0.0639
     29 H         -13.0757   -2.1359    1.5136 H       1  LIG1        0.0639
     30 H          -3.2726    2.6066   -2.8359 H       1  LIG1        0.0840
     31 H          -4.4786    0.3213    0.6051 H       1  LIG1        0.0485
     32 H          -4.4597   -1.3814    1.0806 H       1  LIG1        0.0485
     33 H          -5.4314   -2.4493   -2.4180 H       1  LIG1        0.0485
     34 H          -6.4876   -1.0561   -2.1348 H       1  LIG1        0.0485
     35 H          -6.5702   -0.2518    1.7847 H       1  LIG1        0.0486
     36 H          -6.9227    0.1893    0.1109 H       1  LIG1        0.0486
     37 H          -7.4993   -3.0606   -1.1605 H       1  LIG1        0.0486
     38 H          -6.0297   -3.4278   -0.2399 H       1  LIG1        0.0486
     39 H          -8.1937   -4.2208    0.6533 H       1  LIG1        0.1573
@<TRIPOS>BOND
     1     1     4   ar
     2     1     7   ar
     3     2     5   ar
     4     2     8   ar
     5     3     6   ar
     6     3     8   ar
     7     4    10   ar
     8     5     9   ar
     9     6     9   ar
    10     7    17   ar
    11     8    20    1
    12     9    22    1
    13    10    11   ar
    14    10    23    1
    15    11    17   ar
    16    11    18    1
    17    12    19   am
    18    12    20   am
    19    12    21    2
    20    13    15    1
    21    13    18    1
    22    14    16    1
    23    14    18    1
    24    15    19    1
    25    16    19    1
    26     1    24    1
    27     2    25    1
    28     3    26    1
    29     4    27    1
    30     5    28    1
    31     6    29    1
    32     7    30    1
    33    13    31    1
    34    13    32    1
    35    14    33    1
    36    14    34    1
    37    15    35    1
    38    15    36    1
    39    16    37    1
    40    16    38    1
    41    20    39    1
