@<TRIPOS>MOLECULE
ChEBML273100
 49 51 0 0 0
SMALL
USER_CHARGES

@<TRIPOS>ATOM
      1 C          -2.6383    0.8902   -3.2275 C.ar    1  LIG1       -0.0621
      2 C          -1.8933   -0.1377   -2.6497 C.ar    1  LIG1       -0.0604
      3 C          -3.9804    1.0563   -2.8854 C.ar    1  LIG1       -0.0604
      4 C          -2.4903   -0.9996   -1.7296 C.ar    1  LIG1       -0.0409
      5 C          -4.5774    0.1944   -1.9654 C.ar    1  LIG1       -0.0409
      6 C         -12.0033   -3.2605    1.0008 C.ar    1  LIG1       -0.0371
      7 C         -11.6949   -5.5930    1.5496 C.ar    1  LIG1       -0.0371
      8 C         -10.6264   -3.1189    0.8283 C.ar    1  LIG1       -0.0299
      9 C         -10.3180   -5.4516    1.3769 C.ar    1  LIG1       -0.0299
     10 C          -3.8324   -0.8335   -1.3876 C.ar    1  LIG1        0.0289
     11 C         -12.5375   -4.4975    1.3616 C.ar    1  LIG1        0.0431
     12 C          -9.7838   -4.2145    1.0163 C.ar    1  LIG1        0.0754
     13 C          -3.8048   -1.6914    0.8580 C.3     1  LIG1        0.0508
     14 C          -5.8936   -1.7006   -0.5053 C.3     1  LIG1        0.0559
     15 C          -4.3524   -2.8344    1.6987 C.3     1  LIG1       -0.0196
     16 C          -6.4412   -2.8478    0.3474 C.3     1  LIG1        0.0155
     17 C         -14.9707   -4.3481   -0.9270 C.3     1  LIG1        0.0225
     18 C          -7.9559   -2.7907    0.4801 C.3     1  LIG1        0.0965
     19 N          -4.4249   -1.6882   -0.4750 N.pl3   1  LIG1       -0.3199
     20 N         -13.9468   -4.6425    1.5384 N.pl3   1  LIG1       -0.2633
     21 N          -5.8420   -2.7558    1.7184 N.4     1  LIG1        0.2447
     22 O         -13.9613   -6.6093   -0.1298 O.2     1  LIG1       -0.4814
     23 O         -16.1586   -5.8603    0.8479 O.2     1  LIG1       -0.4814
     24 O          -8.4290   -4.0754    0.8464 O.3     1  LIG1       -0.3402
     25 S         -14.8241   -5.5556    0.3710 S.O2    1  LIG1       -0.1957
     26 H          -2.1734    1.5611   -3.9441 H       1  LIG1        0.0622
     27 H          -0.8486   -0.2669   -2.9161 H       1  LIG1        0.0623
     28 H          -4.5604    1.8569   -3.3355 H       1  LIG1        0.0623
     29 H          -1.9011   -1.7975   -1.2851 H       1  LIG1        0.0642
     30 H          -5.6239    0.3336   -1.7063 H       1  LIG1        0.0642
     31 H         -12.6513   -2.4006    0.8519 H       1  LIG1        0.0644
     32 H         -12.1010   -6.5613    1.8308 H       1  LIG1        0.0644
     33 H         -10.2163   -2.1529    0.5472 H       1  LIG1        0.0651
     34 H          -9.6667   -6.3087    1.5250 H       1  LIG1        0.0651
     35 H          -3.9951   -0.7321    1.3570 H       1  LIG1        0.0524
     36 H          -2.7177   -1.8090    0.7705 H       1  LIG1        0.0524
     37 H          -6.2456   -1.8279   -1.5372 H       1  LIG1        0.0528
     38 H          -6.2768   -0.7366   -0.1442 H       1  LIG1        0.0528
     39 H          -4.0846   -3.8140    1.2888 H       1  LIG1        0.0830
     40 H          -4.0120   -2.7704    2.7363 H       1  LIG1        0.0830
     41 H          -6.1367   -3.8189   -0.0611 H       1  LIG1        0.0892
     42 H         -15.5196   -4.7981   -1.7556 H       1  LIG1        0.0442
     43 H         -15.5105   -3.4848   -0.5348 H       1  LIG1        0.0442
     44 H         -13.9673   -4.0603   -1.2443 H       1  LIG1        0.0442
     45 H          -8.4062   -2.5016   -0.4712 H       1  LIG1        0.0632
     46 H          -8.2393   -2.0720    1.2509 H       1  LIG1        0.0632
     47 H         -14.4245   -3.7845    1.8607 H       1  LIG1        0.1702
     48 H          -6.2096   -3.5153    2.3081 H       1  LIG1        0.1988
     49 H          -6.1354   -1.8794    2.1729 H       1  LIG1        0.1988
@<TRIPOS>BOND
     1     1     2   ar
     2     1     3   ar
     3     2     4   ar
     4     3     5   ar
     5     4    10   ar
     6     5    10   ar
     7     6     8   ar
     8     6    11   ar
     9     7     9   ar
    10     7    11   ar
    11     8    12   ar
    12     9    12   ar
    13    10    19    1
    14    11    20    1
    15    12    24    1
    16    13    15    1
    17    13    19    1
    18    14    16    1
    19    14    19    1
    20    15    21    1
    21    16    18    1
    22    16    21    1
    23    17    25    1
    24    18    24    1
    25    20    25    1
    26    22    25    2
    27    23    25    2
    28     1    26    1
    29     2    27    1
    30     3    28    1
    31     4    29    1
    32     5    30    1
    33     6    31    1
    34     7    32    1
    35     8    33    1
    36     9    34    1
    37    13    35    1
    38    13    36    1
    39    14    37    1
    40    14    38    1
    41    15    39    1
    42    15    40    1
    43    16    41    1
    44    17    42    1
    45    17    43    1
    46    17    44    1
    47    18    45    1
    48    18    46    1
    49    20    47    1
    50    21    48    1
    51    21    49    1
