@<TRIPOS>MOLECULE
ChEBML300385
 44 46 0 0 0
SMALL
USER_CHARGES

@<TRIPOS>ATOM
      1 C         -10.3631   -5.0876    0.3225 C.ar    1  LIG1       -0.0387
      2 C         -11.6725   -5.5150    0.5603 C.ar    1  LIG1       -0.0416
      3 C         -12.0719   -3.6466    2.0592 C.ar    1  LIG1       -0.0343
      4 C          -9.9916   -2.0921    2.3060 C.ar    1  LIG1       -0.0262
      5 C         -10.7556   -3.1963    1.8348 C.ar    1  LIG1       -0.0007
      6 C          -9.9334   -3.9257    0.9734 C.ar    1  LIG1        0.0379
      7 C         -12.5155   -4.8072    1.4149 C.ar    1  LIG1        0.0413
      8 C          -8.7436   -2.1713    1.7325 C.ar    1  LIG1        0.0945
      9 C          -7.5880   -1.2546    1.9093 C.2     1  LIG1        0.2576
     10 C          -4.8581   -0.2658   -0.0843 C.2     1  LIG1        0.2317
     11 C          -2.0383    0.3072   -3.5762 C.3     1  LIG1       -0.0486
     12 C          -2.8649   -0.8482   -3.0924 C.3     1  LIG1       -0.0486
     13 C          -2.2812    0.1216   -2.1071 C.3     1  LIG1       -0.0255
     14 C          -5.2291   -0.8026    1.2869 C.3     1  LIG1        0.0887
     15 C          -3.1862    1.0665   -1.3926 C.3     1  LIG1        0.0171
     16 C          -2.8535    0.7405    1.0276 C.3     1  LIG1        0.0374
     17 C          -3.3097    2.0222    1.7006 C.3     1  LIG1        0.0589
     18 N          -8.7181   -3.2803    0.9302 N.ar    1  LIG1       -0.3101
     19 N          -6.4343   -1.5766    1.2013 N.am    1  LIG1       -0.3013
     20 N          -3.6786    0.4844   -0.1465 N.am    1  LIG1       -0.2979
     21 O          -7.6947   -0.2936    2.6668 O.2     1  LIG1       -0.2704
     22 O          -5.5704   -0.4941   -1.0656 O.2     1  LIG1       -0.2756
     23 O          -3.1504    3.1111    0.8000 O.3     1  LIG1       -0.3947
     24 CL        -14.1236   -5.3648    1.6818 Cl      1  LIG1       -0.0843
     25 H          -9.7078   -5.6400   -0.3426 H       1  LIG1        0.0643
     26 H         -12.0238   -6.4168    0.0631 H       1  LIG1        0.0639
     27 H         -12.7279   -3.0937    2.7263 H       1  LIG1        0.0645
     28 H         -10.3238   -1.3238    2.9915 H       1  LIG1        0.0651
     29 H          -1.0459    0.0939   -3.9542 H       1  LIG1        0.0270
     30 H          -2.5501    1.1126   -4.0886 H       1  LIG1        0.0270
     31 H          -3.9311   -0.8179   -3.2809 H       1  LIG1        0.0270
     32 H          -2.4278   -1.8378   -3.1459 H       1  LIG1        0.0270
     33 H          -1.4577   -0.2095   -1.4889 H       1  LIG1        0.0319
     34 H          -4.4405   -1.4592    1.6637 H       1  LIG1        0.0567
     35 H          -5.4151    0.0210    1.9810 H       1  LIG1        0.0567
     36 H          -4.0540    1.3096   -2.0132 H       1  LIG1        0.0472
     37 H          -2.6609    1.9931   -1.1430 H       1  LIG1        0.0472
     38 H          -1.8100    0.8116    0.7047 H       1  LIG1        0.0493
     39 H          -2.9602   -0.1073    1.7111 H       1  LIG1        0.0493
     40 H          -2.6946    2.2214    2.5836 H       1  LIG1        0.0580
     41 H          -4.3605    1.9662    2.0029 H       1  LIG1        0.0580
     42 H          -7.9238   -3.5845    0.3840 H       1  LIG1        0.1529
     43 H          -6.4091   -2.4287    0.6420 H       1  LIG1        0.1503
     44 H          -3.4520    3.9066    1.2672 H       1  LIG1        0.2101
@<TRIPOS>BOND
     1     1     2   ar
     2     1     6   ar
     3     2     7   ar
     4     3     5   ar
     5     3     7   ar
     6     4     5   ar
     7     4     8   ar
     8     5     6   ar
     9     6    18   ar
    10     7    24    1
    11     8     9    1
    12     8    18   ar
    13     9    19   am
    14     9    21    2
    15    10    14    1
    16    10    20   am
    17    10    22    2
    18    11    12    1
    19    11    13    1
    20    12    13    1
    21    13    15    1
    22    14    19    1
    23    15    20    1
    24    16    17    1
    25    16    20    1
    26    17    23    1
    27     1    25    1
    28     2    26    1
    29     3    27    1
    30     4    28    1
    31    11    29    1
    32    11    30    1
    33    12    31    1
    34    12    32    1
    35    13    33    1
    36    14    34    1
    37    14    35    1
    38    15    36    1
    39    15    37    1
    40    16    38    1
    41    16    39    1
    42    17    40    1
    43    17    41    1
    44    18    42    1
    45    19    43    1
    46    23    44    1
