@<TRIPOS>MOLECULE
ChEBML368786
 54 59 0 0 0
SMALL
USER_CHARGES

@<TRIPOS>ATOM
      1 C          -6.5376   -1.7950   -0.7182 C.ar    1  LIG1       -0.0500
      2 C          -5.4505   -1.3651   -1.4898 C.ar    1  LIG1       -0.0514
      3 C         -11.5939   -5.9001    1.4245 C.ar    1  LIG1       -0.0519
      4 C         -10.3189   -5.4712    1.0447 C.ar    1  LIG1       -0.0397
      5 C         -12.1130   -3.7190    2.3573 C.ar    1  LIG1       -0.0446
      6 C         -10.1447   -2.0250    2.1118 C.ar    1  LIG1       -0.0293
      7 C          -5.0211    0.4875    0.0306 C.ar    1  LIG1       -0.0286
      8 C          -2.0165    1.4056   -2.8363 C.ar    1  LIG1        0.0349
      9 C          -1.7751    0.2315   -3.5186 C.ar    1  LIG1       -0.0043
     10 C          -6.8660   -1.0713    0.4402 C.ar    1  LIG1        0.0265
     11 C         -10.8328   -3.2640    1.9839 C.ar    1  LIG1       -0.0018
     12 C          -4.7064   -0.2430   -1.1199 C.ar    1  LIG1        0.0090
     13 C         -12.4788   -5.0393    2.0708 C.ar    1  LIG1       -0.0035
     14 C          -9.9671   -4.1488    1.3376 C.ar    1  LIG1        0.0377
     15 C          -6.1085    0.0424    0.7854 C.ar    1  LIG1        0.0577
     16 C          -7.8420   -1.1591    1.4562 C.ar    1  LIG1        0.1116
     17 C          -8.8977   -2.1788    1.5514 C.ar    1  LIG1        0.0593
     18 C          -3.5920    0.1725   -1.9381 C.ar    1  LIG1        0.1075
     19 C         -17.2812   -5.4878   -0.1786 C.3     1  LIG1       -0.0434
     20 C         -16.7413   -6.8192    0.3328 C.3     1  LIG1       -0.0134
     21 C         -16.1562   -4.4803   -0.3900 C.3     1  LIG1       -0.0134
     22 C         -15.8926   -6.6401    1.5834 C.3     1  LIG1       -0.0340
     23 C         -15.3093   -4.3098    0.8630 C.3     1  LIG1       -0.0340
     24 C         -13.8400   -5.5314    2.4654 C.3     1  LIG1       -0.0083
     25 N          -3.0581    1.3737   -1.9300 N.ar    1  LIG1       -0.2484
     26 N          -7.7263   -0.1938    2.3709 N.ar    1  LIG1       -0.1816
     27 N          -8.8000   -3.4630    1.0869 N.ar    1  LIG1       -0.3126
     28 N          -6.6707    0.5169    1.9398 N.ar    1  LIG1       -0.2372
     29 N         -14.7823   -5.6562    1.2998 N.4     1  LIG1        0.2493
     30 S          -2.8907   -0.9683   -3.0113 S.2     1  LIG1       -0.0759
     31 H          -7.1065   -2.6698   -1.0179 H       1  LIG1        0.0631
     32 H          -5.1950   -1.9267   -2.3864 H       1  LIG1        0.0630
     33 H         -11.8896   -6.9244    1.2076 H       1  LIG1        0.0628
     34 H          -9.6302   -6.1420    0.5420 H       1  LIG1        0.0643
     35 H         -12.8060   -3.0504    2.8614 H       1  LIG1        0.0635
     36 H         -10.5273   -1.1211    2.5674 H       1  LIG1        0.0650
     37 H          -4.4523    1.3617    0.3311 H       1  LIG1        0.0650
     38 H          -1.4557    2.3217   -2.9635 H       1  LIG1        0.0845
     39 H          -1.0202    0.0275   -4.2644 H       1  LIG1        0.0717
     40 H         -17.8222   -5.6429   -1.1187 H       1  LIG1        0.0271
     41 H         -18.0019   -5.0847    0.5435 H       1  LIG1        0.0271
     42 H         -17.5757   -7.4959    0.5483 H       1  LIG1        0.0320
     43 H         -16.1413   -7.2943   -0.4535 H       1  LIG1        0.0320
     44 H         -15.5209   -4.8124   -1.2206 H       1  LIG1        0.0320
     45 H         -16.5793   -3.5122   -0.6806 H       1  LIG1        0.0320
     46 H         -16.4790   -6.2489    2.4223 H       1  LIG1        0.0814
     47 H         -15.4267   -7.5880    1.8719 H       1  LIG1        0.0814
     48 H         -14.4457   -3.6677    0.6613 H       1  LIG1        0.0814
     49 H         -15.8900   -3.8940    1.6941 H       1  LIG1        0.0814
     50 H         -13.7835   -6.5210    2.9315 H       1  LIG1        0.0869
     51 H         -14.3140   -4.8517    3.1817 H       1  LIG1        0.0869
     52 H          -7.9897   -3.8542    0.6258 H       1  LIG1        0.1528
     53 H          -6.3826    1.3214    2.4824 H       1  LIG1        0.1755
     54 H         -14.2292   -6.0361    0.5191 H       1  LIG1        0.2007
@<TRIPOS>BOND
     1     1     2   ar
     2     1    10   ar
     3     2    12   ar
     4     3     4   ar
     5     3    13   ar
     6     4    14   ar
     7     5    11   ar
     8     5    13   ar
     9     6    11   ar
    10     6    17   ar
    11     7    12   ar
    12     7    15   ar
    13     8     9   ar
    14     8    25   ar
    15     9    30   ar
    16    10    15   ar
    17    10    16   ar
    18    11    14   ar
    19    12    18    1
    20    13    24    1
    21    14    27   ar
    22    15    28   ar
    23    16    17    1
    24    16    26   ar
    25    17    27   ar
    26    18    25   ar
    27    18    30   ar
    28    19    20    1
    29    19    21    1
    30    20    22    1
    31    21    23    1
    32    22    29    1
    33    23    29    1
    34    24    29    1
    35    26    28   ar
    36     1    31    1
    37     2    32    1
    38     3    33    1
    39     4    34    1
    40     5    35    1
    41     6    36    1
    42     7    37    1
    43     8    38    1
    44     9    39    1
    45    19    40    1
    46    19    41    1
    47    20    42    1
    48    20    43    1
    49    21    44    1
    50    21    45    1
    51    22    46    1
    52    22    47    1
    53    23    48    1
    54    23    49    1
    55    24    50    1
    56    24    51    1
    57    27    52    1
    58    28    53    1
    59    29    54    1
