@<TRIPOS>MOLECULE
ChEBML296986
 40 43 0 0 0
SMALL
USER_CHARGES

@<TRIPOS>ATOM
      1 C          -2.4086    1.2640   -3.1821 C.ar    1  LIG1       -0.0621
      2 C          -3.7740    1.3452   -2.9093 C.ar    1  LIG1       -0.0596
      3 C          -1.6640    0.1870   -2.7008 C.ar    1  LIG1       -0.0596
      4 C          -5.6430    0.1188    1.9269 C.ar    1  LIG1       -0.0589
      5 C          -6.8763   -0.5163    2.0731 C.ar    1  LIG1       -0.0513
      6 C         -12.0735   -4.9886    1.5094 C.ar    1  LIG1       -0.0477
      7 C         -10.7263   -5.0245    1.1343 C.ar    1  LIG1       -0.0378
      8 C          -4.3951    0.3497   -2.1551 C.ar    1  LIG1       -0.0312
      9 C          -2.2850   -0.8085   -1.9466 C.ar    1  LIG1       -0.0312
     10 C          -4.7660   -0.2841    0.9198 C.ar    1  LIG1       -0.0312
     11 C          -6.3555   -1.9575    0.2052 C.ar    1  LIG1       -0.0205
     12 C         -11.9071   -2.6466    2.1542 C.ar    1  LIG1       -0.0219
     13 C          -7.2325   -1.5544    1.2123 C.ar    1  LIG1        0.0175
     14 C         -12.6554   -3.8218    2.0104 C.ar    1  LIG1        0.0391
     15 C         -10.5522   -2.6649    1.7824 C.ar    1  LIG1        0.0874
     16 C         -10.0006   -3.8427    1.2861 C.ar    1  LIG1        0.0576
     17 C          -3.6505   -0.7273   -1.6737 C.ar    1  LIG1        0.0820
     18 C          -5.1222   -1.3222    0.0589 C.ar    1  LIG1        0.0828
     19 C          -8.5082   -2.2111    1.3630 C.ar    1  LIG1        0.1298
     20 C         -14.0602   -3.8248    2.3892 C.2     1  LIG1        0.2404
     21 N          -9.6104   -1.6624    1.8226 N.ar    1  LIG1       -0.2308
     22 N          -8.6926   -3.5233    1.0262 N.ar    1  LIG1       -0.2973
     23 N         -14.7703   -5.0111    2.2316 N.am    1  LIG1       -0.3251
     24 O         -14.6161   -2.8010    2.8233 O.2     1  LIG1       -0.2721
     25 O          -4.2661   -1.7151   -0.9234 O.3     1  LIG1       -0.3104
     26 H          -1.9249    2.0387   -3.7699 H       1  LIG1        0.0622
     27 H          -4.3540    2.1839   -3.2839 H       1  LIG1        0.0623
     28 H          -0.6008    0.1244   -2.9138 H       1  LIG1        0.0623
     29 H          -5.3652    0.9272    2.5969 H       1  LIG1        0.0624
     30 H          -7.5492   -0.1913    2.8631 H       1  LIG1        0.0630
     31 H         -12.6688   -5.8934    1.4053 H       1  LIG1        0.0631
     32 H         -10.2721   -5.9290    0.7459 H       1  LIG1        0.0643
     33 H          -5.4587    0.4196   -1.9448 H       1  LIG1        0.0650
     34 H          -1.6996   -1.6441   -1.5727 H       1  LIG1        0.0650
     35 H          -3.8066    0.2144    0.8112 H       1  LIG1        0.0650
     36 H          -6.6235   -2.7665   -0.4713 H       1  LIG1        0.0658
     37 H         -12.3581   -1.7385    2.5431 H       1  LIG1        0.0654
     38 H          -7.9934   -4.1497    0.6490 H       1  LIG1        0.1544
     39 H         -14.2957   -5.8280    1.8627 H       1  LIG1        0.1458
     40 H         -15.7527   -5.0766    2.4778 H       1  LIG1        0.1458
@<TRIPOS>BOND
     1     1     2   ar
     2     1     3   ar
     3     2     8   ar
     4     3     9   ar
     5     4     5   ar
     6     4    10   ar
     7     5    13   ar
     8     6     7   ar
     9     6    14   ar
    10     7    16   ar
    11     8    17   ar
    12     9    17   ar
    13    10    18   ar
    14    11    13   ar
    15    11    18   ar
    16    12    14   ar
    17    12    15   ar
    18    13    19    1
    19    14    20    1
    20    15    16   ar
    21    15    21   ar
    22    16    22   ar
    23    17    25    1
    24    18    25    1
    25    19    21   ar
    26    19    22   ar
    27    20    23   am
    28    20    24    2
    29     1    26    1
    30     2    27    1
    31     3    28    1
    32     4    29    1
    33     5    30    1
    34     6    31    1
    35     7    32    1
    36     8    33    1
    37     9    34    1
    38    10    35    1
    39    11    36    1
    40    12    37    1
    41    22    38    1
    42    23    39    1
    43    23    40    1
