@<TRIPOS>MOLECULE
ChEBML232704
 38 40 0 0 0
SMALL
USER_CHARGES

@<TRIPOS>ATOM
      1 C          -6.7075   -1.4669   -0.5622 C.ar    1  LIG1       -0.0507
      2 C          -5.2873   -0.6859    1.2295 C.ar    1  LIG1       -0.0507
      3 C          -5.6238   -1.4251   -1.4394 C.ar    1  LIG1       -0.0583
      4 C          -4.2036   -0.6442    0.3523 C.ar    1  LIG1       -0.0583
      5 C         -10.2182   -5.2436    0.5955 C.ar    1  LIG1       -0.0376
      6 C         -11.5500   -5.6439    0.7366 C.ar    1  LIG1       -0.0299
      7 C         -12.1410   -3.5204    1.7555 C.ar    1  LIG1       -0.0226
      8 C         -10.1063   -1.9008    1.9588 C.ar    1  LIG1       -0.0275
      9 C         -10.8043   -3.0948    1.6237 C.ar    1  LIG1        0.0003
     10 C          -6.5393   -1.0972    0.7722 C.ar    1  LIG1        0.0238
     11 C          -4.3718   -1.0139   -0.9822 C.ar    1  LIG1       -0.0482
     12 C          -9.8756   -3.9644    1.0480 C.ar    1  LIG1        0.0379
     13 C         -12.4983   -4.7973    1.3073 C.ar    1  LIG1        0.0753
     14 C          -8.7919   -2.0658    1.5872 C.ar    1  LIG1        0.0797
     15 C          -7.7100   -1.1424    1.7216 C.2     1  LIG1        0.2066
     16 C          -3.5926   -1.4094   -3.3322 C.3     1  LIG1       -0.0613
     17 C         -14.0931   -6.5264    0.9571 C.3     1  LIG1        0.0422
     18 C          -3.2131   -0.9705   -1.9204 C.3     1  LIG1       -0.0307
     19 N          -8.6625   -3.3134    1.0386 N.ar    1  LIG1       -0.3112
     20 O          -7.6797   -0.3069    2.6552 O.2     1  LIG1       -0.2871
     21 O         -13.7893   -5.2164    1.4312 O.3     1  LIG1       -0.3493
     22 H          -7.6788   -1.7889   -0.9285 H       1  LIG1        0.0630
     23 H          -5.1445   -0.3955    2.2671 H       1  LIG1        0.0630
     24 H          -5.7639   -1.7152   -2.4773 H       1  LIG1        0.0626
     25 H          -3.2315   -0.3230    0.7172 H       1  LIG1        0.0626
     26 H          -9.4807   -5.9032    0.1507 H       1  LIG1        0.0643
     27 H         -11.8427   -6.6335    0.3929 H       1  LIG1        0.0651
     28 H         -12.8866   -2.8657    2.1987 H       1  LIG1        0.0657
     29 H         -10.5253   -1.0175    2.4225 H       1  LIG1        0.0651
     30 H          -4.0179   -2.4187   -3.3289 H       1  LIG1        0.0234
     31 H          -2.7145   -1.4137   -3.9857 H       1  LIG1        0.0234
     32 H          -4.3360   -0.7328   -3.7674 H       1  LIG1        0.0234
     33 H         -15.1539   -6.7350    1.1153 H       1  LIG1        0.0535
     34 H         -13.4830   -7.2588    1.4917 H       1  LIG1        0.0535
     35 H         -13.8692   -6.5786   -0.1110 H       1  LIG1        0.0535
     36 H          -2.7899    0.0460   -1.9610 H       1  LIG1        0.0313
     37 H          -2.3963   -1.6115   -1.5514 H       1  LIG1        0.0313
     38 H          -7.8027   -3.7035    0.6777 H       1  LIG1        0.1529
@<TRIPOS>BOND
     1     1     3   ar
     2     1    10   ar
     3     2     4   ar
     4     2    10   ar
     5     3    11   ar
     6     4    11   ar
     7     5     6   ar
     8     5    12   ar
     9     6    13   ar
    10     7     9   ar
    11     7    13   ar
    12     8     9   ar
    13     8    14   ar
    14     9    12   ar
    15    10    15    1
    16    11    18    1
    17    12    19   ar
    18    13    21    1
    19    14    15    1
    20    14    19   ar
    21    15    20    2
    22    16    18    1
    23    17    21    1
    24     1    22    1
    25     2    23    1
    26     3    24    1
    27     4    25    1
    28     5    26    1
    29     6    27    1
    30     7    28    1
    31     8    29    1
    32    16    30    1
    33    16    31    1
    34    16    32    1
    35    17    33    1
    36    17    34    1
    37    17    35    1
    38    18    36    1
    39    18    37    1
    40    19    38    1
