@<TRIPOS>MOLECULE
ChEBML810221
 46 50 0 0 0
SMALL
USER_CHARGES

@<TRIPOS>ATOM
      1 C         -10.1309   -7.1927   -0.6323 C.ar    1  LIG1       -0.0614
      2 C         -11.4488   -7.5608   -0.3722 C.ar    1  LIG1       -0.0601
      3 C          -2.1513    0.9449   -3.9615 C.ar    1  LIG1       -0.0595
      4 C          -1.2544    0.3621   -3.0658 C.ar    1  LIG1       -0.0595
      5 C          -9.6358   -6.0013   -0.1159 C.ar    1  LIG1       -0.0501
      6 C         -12.2755   -6.7388    0.4045 C.ar    1  LIG1       -0.0357
      7 C          -3.5112    0.9988   -3.6546 C.ar    1  LIG1       -0.0291
      8 C          -1.7160   -0.1785   -1.8654 C.ar    1  LIG1       -0.0291
      9 C         -10.1011   -2.0432    2.3588 C.ar    1  LIG1       -0.0140
     10 C         -10.4830   -5.1899    0.6620 C.ar    1  LIG1        0.0317
     11 C         -10.8874   -3.1642    1.9884 C.ar    1  LIG1        0.0300
     12 C         -11.8189   -5.5384    0.9397 C.ar    1  LIG1        0.0732
     13 C         -10.0616   -3.9736    1.2194 C.ar    1  LIG1        0.1008
     14 C          -3.9718    0.4708   -2.4482 C.ar    1  LIG1        0.1053
     15 C          -3.0777   -0.1373   -1.5643 C.ar    1  LIG1        0.1058
     16 C          -8.8606   -2.2393    1.7983 C.ar    1  LIG1        0.1452
     17 C         -12.1948   -3.5892    2.2111 C.ar    1  LIG1        0.0480
     18 C          -7.6251   -1.4149    1.8339 C.2     1  LIG1        0.2668
     19 C          -5.6178    0.3261   -0.8174 C.3     1  LIG1        0.0818
     20 C          -4.8896   -0.9207   -0.3327 C.3     1  LIG1        0.1036
     21 C         -13.1805   -2.8132    3.0179 C.3     1  LIG1       -0.0215
     22 C          -5.2588   -1.2539    1.1053 C.3     1  LIG1        0.0406
     23 N         -12.6346   -4.7634    1.6851 N.ar    1  LIG1       -0.2523
     24 N          -6.5204   -1.9176    1.1436 N.am    1  LIG1       -0.3069
     25 O          -7.6230   -0.3642    2.4698 O.2     1  LIG1       -0.2695
     26 O          -8.8256   -3.4067    1.1050 O.2     1  LIG1       -0.3034
     27 O          -5.3141    0.5721   -2.1941 O.3     1  LIG1       -0.3405
     28 O          -3.4728   -0.7027   -0.3806 O.3     1  LIG1       -0.3360
     29 H          -9.4946   -7.8332   -1.2352 H       1  LIG1        0.0623
     30 H         -11.8398   -8.4916   -0.7742 H       1  LIG1        0.0623
     31 H          -1.7896    1.3611   -4.8973 H       1  LIG1        0.0623
     32 H          -0.1956    0.3251   -3.3055 H       1  LIG1        0.0623
     33 H          -8.6080   -5.7137   -0.3171 H       1  LIG1        0.0631
     34 H         -13.3004   -7.0568    0.5877 H       1  LIG1        0.0645
     35 H          -4.2018    1.4624   -4.3539 H       1  LIG1        0.0651
     36 H          -1.0121   -0.6386   -1.1774 H       1  LIG1        0.0651
     37 H         -10.4035   -1.1978    2.9615 H       1  LIG1        0.0660
     38 H          -6.7023    0.1966   -0.7394 H       1  LIG1        0.0600
     39 H          -5.3393    1.2147   -0.2363 H       1  LIG1        0.0600
     40 H          -5.1227   -1.7805   -0.9750 H       1  LIG1        0.0650
     41 H         -13.7380   -2.1202    2.3761 H       1  LIG1        0.0296
     42 H         -13.8972   -3.4776    3.5178 H       1  LIG1        0.0296
     43 H         -12.6820   -2.2335    3.8056 H       1  LIG1        0.0296
     44 H          -5.3239   -0.3342    1.6750 H       1  LIG1        0.0495
     45 H          -4.5024   -1.9053    1.5266 H       1  LIG1        0.0495
     46 H          -6.5956   -2.8336    0.6931 H       1  LIG1        0.1498
@<TRIPOS>BOND
     1     1     2   ar
     2     1     5   ar
     3     2     6   ar
     4     3     4   ar
     5     3     7   ar
     6     4     8   ar
     7     5    10   ar
     8     6    12   ar
     9     7    14   ar
    10     8    15   ar
    11     9    11   ar
    12     9    16   ar
    13    10    12   ar
    14    10    13   ar
    15    11    13   ar
    16    11    17   ar
    17    12    23   ar
    18    13    26   ar
    19    14    15   ar
    20    14    27    1
    21    15    28    1
    22    16    18    1
    23    16    26   ar
    24    17    21    1
    25    17    23   ar
    26    18    24   am
    27    18    25    2
    28    19    20    1
    29    19    27    1
    30    20    22    1
    31    20    28    1
    32    22    24    1
    33     1    29    1
    34     2    30    1
    35     3    31    1
    36     4    32    1
    37     5    33    1
    38     6    34    1
    39     7    35    1
    40     8    36    1
    41     9    37    1
    42    19    38    1
    43    19    39    1
    44    20    40    1
    45    21    41    1
    46    21    42    1
    47    21    43    1
    48    22    44    1
    49    22    45    1
    50    24    46    1
