@<TRIPOS>MOLECULE
ChEBML296764
 42 44 0 0 0
SMALL
USER_CHARGES

@<TRIPOS>ATOM
      1 C          -2.0189   -0.2788   -3.3032 C.ar    1  LIG1       -0.0573
      2 C          -2.0556    1.1057   -3.4266 C.ar    1  LIG1       -0.0437
      3 C         -12.1449   -3.6936    2.0064 C.ar    1  LIG1       -0.0482
      4 C         -11.5720   -5.6633    0.7301 C.ar    1  LIG1       -0.0482
      5 C         -10.8462   -3.2110    1.8448 C.ar    1  LIG1       -0.0401
      6 C         -10.2732   -5.1808    0.5686 C.ar    1  LIG1       -0.0401
      7 C          -2.9531   -0.9247   -2.5012 C.ar    1  LIG1       -0.0217
      8 C          -3.0386    1.7927   -2.7328 C.ar    1  LIG1        0.0290
      9 C         -12.5078   -4.9197    1.4491 C.ar    1  LIG1        0.0556
     10 C          -9.9104   -3.9547    1.1260 C.ar    1  LIG1        0.0340
     11 C          -3.8959   -0.1467   -1.8488 C.ar    1  LIG1        0.1199
     12 C          -8.3437   -2.1055    0.9984 C.2     1  LIG1        0.3050
     13 C          -5.3580   -0.1065    0.1088 C.3     1  LIG1        0.0288
     14 C          -5.5971   -1.8803   -1.6556 C.3     1  LIG1        0.0288
     15 C          -6.8727   -0.2856    0.1832 C.3     1  LIG1        0.0315
     16 C          -6.4203   -2.6042   -0.5892 C.3     1  LIG1        0.0315
     17 C         -13.8964   -5.4356    1.6219 C.3     1  LIG1        0.4160
     18 N          -3.9630    1.2001   -1.9443 N.ar    1  LIG1       -0.2414
     19 N          -4.8103   -0.7977   -1.0615 N.pl3   1  LIG1       -0.3127
     20 N          -7.2477   -1.6978    0.2147 N.am    1  LIG1       -0.2824
     21 N          -8.6071   -3.4706    0.9634 N.am    1  LIG1       -0.2691
     22 O          -9.0143   -1.3157    1.6711 O.2     1  LIG1       -0.2537
     23 F         -14.7030   -4.6045    2.3464 F       1  LIG1       -0.1661
     24 F         -14.5569   -5.6336    0.4428 F       1  LIG1       -0.1661
     25 F         -13.9336   -6.6370    2.2686 F       1  LIG1       -0.1661
     26 H          -1.2629   -0.8533   -3.8303 H       1  LIG1        0.0624
     27 H          -1.3373    1.6307   -4.0458 H       1  LIG1        0.0639
     28 H         -12.8670   -3.1086    2.5700 H       1  LIG1        0.0629
     29 H         -11.8458   -6.6200    0.2931 H       1  LIG1        0.0629
     30 H         -10.5745   -2.2541    2.2832 H       1  LIG1        0.0642
     31 H          -9.5515   -5.7690    0.0073 H       1  LIG1        0.0642
     32 H          -2.9323   -2.0049   -2.3998 H       1  LIG1        0.0659
     33 H          -3.1104    2.8737   -2.7958 H       1  LIG1        0.0840
     34 H          -5.1264    0.9654    0.0775 H       1  LIG1        0.0485
     35 H          -4.8855   -0.5180    1.0088 H       1  LIG1        0.0485
     36 H          -4.9358   -2.6015   -2.1504 H       1  LIG1        0.0485
     37 H          -6.2669   -1.4646   -2.4193 H       1  LIG1        0.0485
     38 H          -7.2654    0.2293    1.0663 H       1  LIG1        0.0486
     39 H          -7.3580    0.1552   -0.6962 H       1  LIG1        0.0486
     40 H          -7.0602   -3.3490   -1.0738 H       1  LIG1        0.0486
     41 H          -5.7579   -3.1305    0.1087 H       1  LIG1        0.0486
     42 H          -7.8696   -4.1601    0.8769 H       1  LIG1        0.1573
@<TRIPOS>BOND
     1     1     2   ar
     2     1     7   ar
     3     2     8   ar
     4     3     5   ar
     5     3     9   ar
     6     4     6   ar
     7     4     9   ar
     8     5    10   ar
     9     6    10   ar
    10     7    11   ar
    11     8    18   ar
    12     9    17    1
    13    10    21    1
    14    11    18   ar
    15    11    19    1
    16    12    20   am
    17    12    21   am
    18    12    22    2
    19    13    15    1
    20    13    19    1
    21    14    16    1
    22    14    19    1
    23    15    20    1
    24    16    20    1
    25    17    23    1
    26    17    24    1
    27    17    25    1
    28     1    26    1
    29     2    27    1
    30     3    28    1
    31     4    29    1
    32     5    30    1
    33     6    31    1
    34     7    32    1
    35     8    33    1
    36    13    34    1
    37    13    35    1
    38    14    36    1
    39    14    37    1
    40    15    38    1
    41    15    39    1
    42    16    40    1
    43    16    41    1
    44    21    42    1
