@<TRIPOS>MOLECULE
ChEBML233369
 32 34 0 0 0
SMALL
USER_CHARGES

@<TRIPOS>ATOM
      1 C          -6.2831   -2.0911   -0.0328 C.ar    1  LIG1       -0.0499
      2 C          -5.1179   -0.9289    1.7357 C.ar    1  LIG1       -0.0499
      3 C         -10.3341   -5.1427    0.4428 C.ar    1  LIG1       -0.0376
      4 C         -11.6441   -5.5129    0.6446 C.ar    1  LIG1       -0.0299
      5 C          -5.0874   -2.2646   -0.6974 C.ar    1  LIG1       -0.0472
      6 C          -3.9278   -1.1147    1.0645 C.ar    1  LIG1       -0.0472
      7 C         -12.0426   -3.5390    1.9598 C.ar    1  LIG1       -0.0226
      8 C          -9.9520   -2.0353    2.1947 C.ar    1  LIG1       -0.0275
      9 C         -10.7092   -3.1513    1.7668 C.ar    1  LIG1        0.0003
     10 C          -6.3065   -1.4226    1.1933 C.ar    1  LIG1        0.0239
     11 C          -9.8504   -3.9619    0.9987 C.ar    1  LIG1        0.0379
     12 C         -12.4983   -4.7151    1.4042 C.ar    1  LIG1        0.0753
     13 C          -3.9113   -1.7781   -0.1512 C.ar    1  LIG1        0.0175
     14 C          -8.6913   -2.1755    1.7008 C.ar    1  LIG1        0.0797
     15 C          -7.5845   -1.2333    1.9109 C.2     1  LIG1        0.2066
     16 C         -13.9587   -6.3379    0.9059 C.3     1  LIG1        0.0422
     17 N          -8.6191   -3.3458    0.9708 N.ar    1  LIG1       -0.3112
     18 O          -7.7198   -0.2967    2.6757 O.2     1  LIG1       -0.2871
     19 O         -13.7898   -5.0964    1.5932 O.3     1  LIG1       -0.3493
     20 BR         -2.2759   -2.0209   -1.0691 Br      1  LIG1       -0.0508
     21 H          -7.1994   -2.4716   -0.4595 H       1  LIG1        0.0631
     22 H          -5.1301   -0.4073    2.6813 H       1  LIG1        0.0631
     23 H          -9.6810   -5.7688   -0.1468 H       1  LIG1        0.0643
     24 H         -12.0136   -6.4303    0.2108 H       1  LIG1        0.0651
     25 H          -5.0679   -2.7813   -1.6455 H       1  LIG1        0.0635
     26 H          -3.0073   -0.7380    1.4853 H       1  LIG1        0.0635
     27 H         -12.7083   -2.9211    2.5441 H       1  LIG1        0.0657
     28 H         -10.3101   -1.2187    2.8040 H       1  LIG1        0.0651
     29 H         -14.9845   -6.6851    1.0298 H       1  LIG1        0.0535
     30 H         -13.7480   -6.1979   -0.1543 H       1  LIG1        0.0535
     31 H         -13.2725   -7.0777    1.3181 H       1  LIG1        0.0535
     32 H          -7.8310   -3.6791    0.5141 H       1  LIG1        0.1529
@<TRIPOS>BOND
     1     1     5   ar
     2     1    10   ar
     3     2     6   ar
     4     2    10   ar
     5     3     4   ar
     6     3    11   ar
     7     4    12   ar
     8     5    13   ar
     9     6    13   ar
    10     7     9   ar
    11     7    12   ar
    12     8     9   ar
    13     8    14   ar
    14     9    11   ar
    15    10    15    1
    16    11    17   ar
    17    12    19    1
    18    13    20    1
    19    14    15    1
    20    14    17   ar
    21    15    18    2
    22    16    19    1
    23     1    21    1
    24     2    22    1
    25     3    23    1
    26     4    24    1
    27     5    25    1
    28     6    26    1
    29     7    27    1
    30     8    28    1
    31    16    29    1
    32    16    30    1
    33    16    31    1
    34    17    32    1
