@<TRIPOS>MOLECULE
ChEBML406365
 50 52 0 0 0
SMALL
USER_CHARGES

@<TRIPOS>ATOM
      1 C          -2.6385    1.5857   -2.7570 C.ar    1  LIG1       -0.0589
      2 C          -9.7537   -1.6240    1.4927 C.ar    1  LIG1       -0.0494
      3 C          -8.1269   -3.4058    1.4120 C.ar    1  LIG1       -0.0494
      4 C         -10.7525   -2.5329    1.2106 C.ar    1  LIG1       -0.0577
      5 C          -9.1359   -4.3051    1.1359 C.ar    1  LIG1       -0.0577
      6 C          -3.2370    1.0252   -1.6460 C.ar    1  LIG1       -0.0408
      7 C          -2.1637    0.7751   -3.7718 C.ar    1  LIG1       -0.0434
      8 C          -2.8792   -1.1675   -2.5650 C.ar    1  LIG1       -0.0222
      9 C          -8.4303   -2.0558    1.5956 C.ar    1  LIG1        0.0372
     10 C         -10.4449   -3.8696    1.0296 C.ar    1  LIG1       -0.0426
     11 C          -3.3619   -0.3551   -1.5475 C.ar    1  LIG1        0.0301
     12 C          -2.2861   -0.6000   -3.6774 C.ar    1  LIG1        0.0424
     13 C          -7.3547   -1.0873    1.8973 C.2     1  LIG1        0.2456
     14 C          -4.3613    0.1851    0.4503 C.3     1  LIG1        0.0274
     15 C          -5.1964   -1.5743   -0.8918 C.3     1  LIG1        0.0274
     16 C          -5.0132   -0.3696    1.7209 C.3     1  LIG1        0.0302
     17 C          -5.9019   -2.2493    0.2947 C.3     1  LIG1        0.0302
     18 C         -11.5916   -5.9216    1.8190 C.3     1  LIG1       -0.0561
     19 C         -11.2615   -5.5255   -0.6257 C.3     1  LIG1       -0.0561
     20 C         -12.8834   -4.1250    0.6590 C.3     1  LIG1       -0.0561
     21 C         -11.5411   -4.8566    0.7216 C.3     1  LIG1       -0.0132
     22 N          -3.9664   -0.9247   -0.4246 N.pl3   1  LIG1       -0.3276
     23 N          -6.1417   -1.2282    1.3270 N.am    1  LIG1       -0.2947
     24 O          -7.5644   -0.1642    2.6597 O.2     1  LIG1       -0.2716
     25 CL         -1.6890   -1.6137   -4.9540 Cl      1  LIG1       -0.0842
     26 H          -2.5414    2.6586   -2.8337 H       1  LIG1        0.0624
     27 H          -9.9950   -0.5809    1.6334 H       1  LIG1        0.0631
     28 H          -7.1049   -3.7462    1.4902 H       1  LIG1        0.0631
     29 H         -11.7769   -2.2000    1.1304 H       1  LIG1        0.0626
     30 H          -8.9030   -5.3506    0.9979 H       1  LIG1        0.0626
     31 H          -3.6081    1.6592   -0.8543 H       1  LIG1        0.0642
     32 H          -1.6967    1.2162   -4.6400 H       1  LIG1        0.0638
     33 H          -2.9707   -2.2409   -2.4894 H       1  LIG1        0.0658
     34 H          -5.0722    0.8247   -0.0729 H       1  LIG1        0.0485
     35 H          -3.4795    0.7669    0.7191 H       1  LIG1        0.0485
     36 H          -5.8563   -0.8273   -1.3330 H       1  LIG1        0.0485
     37 H          -4.9479   -2.3263   -1.6405 H       1  LIG1        0.0485
     38 H          -5.3755    0.4533    2.3370 H       1  LIG1        0.0486
     39 H          -4.2847   -0.9554    2.2816 H       1  LIG1        0.0486
     40 H          -5.2702   -3.0397    0.6999 H       1  LIG1        0.0486
     41 H          -6.8524   -2.6701   -0.0331 H       1  LIG1        0.0486
     42 H         -10.6354   -6.4429    1.8636 H       1  LIG1        0.0239
     43 H         -11.7909   -5.4452    2.7788 H       1  LIG1        0.0239
     44 H         -12.3846   -6.6356    1.5962 H       1  LIG1        0.0239
     45 H         -12.0545   -6.2395   -0.8485 H       1  LIG1        0.0239
     46 H         -11.2256   -4.7668   -1.4075 H       1  LIG1        0.0239
     47 H         -10.3053   -6.0468   -0.5811 H       1  LIG1        0.0239
     48 H         -13.0826   -3.6484    1.6188 H       1  LIG1        0.0239
     49 H         -12.8474   -3.3663   -0.1228 H       1  LIG1        0.0239
     50 H         -13.6763   -4.8389    0.4362 H       1  LIG1        0.0239
@<TRIPOS>BOND
     1     1     6   ar
     2     1     7   ar
     3     2     4   ar
     4     2     9   ar
     5     3     5   ar
     6     3     9   ar
     7     4    10   ar
     8     5    10   ar
     9     6    11   ar
    10     7    12   ar
    11     8    11   ar
    12     8    12   ar
    13     9    13    1
    14    10    21    1
    15    11    22    1
    16    12    25    1
    17    13    23   am
    18    13    24    2
    19    14    16    1
    20    14    22    1
    21    15    17    1
    22    15    22    1
    23    16    23    1
    24    17    23    1
    25    18    21    1
    26    19    21    1
    27    20    21    1
    28     1    26    1
    29     2    27    1
    30     3    28    1
    31     4    29    1
    32     5    30    1
    33     6    31    1
    34     7    32    1
    35     8    33    1
    36    14    34    1
    37    14    35    1
    38    15    36    1
    39    15    37    1
    40    16    38    1
    41    16    39    1
    42    17    40    1
    43    17    41    1
    44    18    42    1
    45    18    43    1
    46    18    44    1
    47    19    45    1
    48    19    46    1
    49    19    47    1
    50    20    48    1
    51    20    49    1
    52    20    50    1
