@<TRIPOS>MOLECULE
ChEBML248892
 63 66 0 0 0
SMALL
USER_CHARGES

@<TRIPOS>ATOM
      1 C          -1.5558    0.1873   -3.3731 C.ar    1  LIG1       -0.0418
      2 C          -9.7856   -5.5088    1.1433 C.ar    1  LIG1       -0.0383
      3 C          -2.5580    1.1413   -3.5097 C.ar    1  LIG1       -0.0360
      4 C         -11.0847   -6.0102    1.0210 C.ar    1  LIG1       -0.0377
      5 C         -12.0293   -3.7893    1.2892 C.ar    1  LIG1       -0.0304
      6 C         -10.2060   -1.9529    1.6173 C.ar    1  LIG1       -0.0261
      7 C          -1.8031   -0.9000   -2.5507 C.ar    1  LIG1        0.0292
      8 C         -10.7293   -3.2607    1.4153 C.ar    1  LIG1       -0.0003
      9 C          -9.6396   -4.1309    1.3396 C.ar    1  LIG1        0.0379
     10 C         -12.1906   -5.1656    1.0925 C.ar    1  LIG1        0.0437
     11 C          -3.7600    0.9813   -2.8293 C.ar    1  LIG1        0.0674
     12 C          -8.8344   -2.0527    1.6598 C.ar    1  LIG1        0.0947
     13 C          -3.9086   -0.1416   -2.0312 C.ar    1  LIG1        0.1412
     14 C          -7.8712   -1.0059    1.8440 C.2     1  LIG1        0.2599
     15 C          -5.5497   -1.6707   -1.0809 C.3     1  LIG1        0.0288
     16 C          -5.5700    0.7729   -0.4884 C.3     1  LIG1        0.0288
     17 C          -6.9263   -1.6543   -0.4160 C.3     1  LIG1        0.0303
     18 C          -5.9539    0.2286    0.8855 C.3     1  LIG1        0.0303
     19 C          -6.7246    3.0801   -3.8416 C.3     1  LIG1       -0.0444
     20 C          -5.1169    1.8932   -5.3564 C.3     1  LIG1       -0.0444
     21 C          -6.5862    0.5792   -3.8064 C.3     1  LIG1       -0.0444
     22 C         -13.6467   -6.5277   -1.5902 C.3     1  LIG1        0.0225
     23 C          -5.7862    1.8756   -3.9782 C.3     1  LIG1        0.0228
     24 N          -2.9578   -1.0897   -1.8737 N.ar    1  LIG1       -0.2394
     25 N          -8.5023   -3.3701    1.4911 N.ar    1  LIG1       -0.3101
     26 N          -5.0906   -0.3067   -1.3559 N.pl3   1  LIG1       -0.3112
     27 N          -6.9504   -0.8351    0.8000 N.am    1  LIG1       -0.2936
     28 N          -4.7757    1.9457   -2.9662 N.pl3   1  LIG1       -0.3369
     29 N         -13.5055   -5.7090    0.9636 N.pl3   1  LIG1       -0.2633
     30 O          -7.8813   -0.3122    2.8593 O.2     1  LIG1       -0.2701
     31 O         -15.7653   -5.7858   -0.2754 O.2     1  LIG1       -0.4814
     32 O         -14.0934   -4.0287   -0.9553 O.2     1  LIG1       -0.4814
     33 S         -14.3913   -5.3621   -0.4716 S.O2    1  LIG1       -0.1957
     34 H          -0.6109    0.2913   -3.8940 H       1  LIG1        0.0639
     35 H          -8.9252   -6.1671    1.0874 H       1  LIG1        0.0643
     36 H          -2.3908    2.0043   -4.1487 H       1  LIG1        0.0644
     37 H         -11.2216   -7.0786    0.8680 H       1  LIG1        0.0643
     38 H         -12.8938   -3.1329    1.3446 H       1  LIG1        0.0650
     39 H         -10.7762   -1.0391    1.7202 H       1  LIG1        0.0651
     40 H          -1.0541   -1.6722   -2.4097 H       1  LIG1        0.0840
     41 H          -4.8288   -2.1722   -0.4224 H       1  LIG1        0.0485
     42 H          -5.6056   -2.2433   -2.0143 H       1  LIG1        0.0485
     43 H          -6.4410    1.2397   -0.9640 H       1  LIG1        0.0485
     44 H          -4.8076    1.5522   -0.3672 H       1  LIG1        0.0485
     45 H          -7.6728   -1.2291   -1.0980 H       1  LIG1        0.0486
     46 H          -7.2334   -2.6794   -0.1852 H       1  LIG1        0.0486
     47 H          -5.0765   -0.1990    1.3863 H       1  LIG1        0.0486
     48 H          -6.3278    1.0399    1.5194 H       1  LIG1        0.0486
     49 H          -7.2166    3.0900   -2.8620 H       1  LIG1        0.0252
     50 H          -6.1805    4.0244   -3.9542 H       1  LIG1        0.0252
     51 H          -7.5151    3.0531   -4.6007 H       1  LIG1        0.0252
     52 H          -4.4397    1.0397   -5.4780 H       1  LIG1        0.0252
     53 H          -4.5199    2.8022   -5.4944 H       1  LIG1        0.0252
     54 H          -5.8593    1.8519   -6.1611 H       1  LIG1        0.0252
     55 H          -5.9385   -0.3002   -3.8996 H       1  LIG1        0.0252
     56 H          -7.0728    0.5377   -2.8256 H       1  LIG1        0.0252
     57 H          -7.3653    0.4902   -4.5725 H       1  LIG1        0.0252
     58 H         -14.1216   -6.4196   -2.5666 H       1  LIG1        0.0442
     59 H         -12.5802   -6.3076   -1.6571 H       1  LIG1        0.0442
     60 H         -13.8060   -7.5326   -1.1966 H       1  LIG1        0.0442
     61 H          -7.5597   -3.7351    1.4795 H       1  LIG1        0.1529
     62 H          -4.7719    2.7097   -2.3149 H       1  LIG1        0.1471
     63 H         -13.5969   -6.6810    1.3016 H       1  LIG1        0.1702
@<TRIPOS>BOND
     1     1     3   ar
     2     1     7   ar
     3     2     4   ar
     4     2     9   ar
     5     3    11   ar
     6     4    10   ar
     7     5     8   ar
     8     5    10   ar
     9     6     8   ar
    10     6    12   ar
    11     7    24   ar
    12     8     9   ar
    13     9    25   ar
    14    10    29    1
    15    11    13   ar
    16    11    28    1
    17    12    14    1
    18    12    25   ar
    19    13    24   ar
    20    13    26    1
    21    14    27   am
    22    14    30    2
    23    15    17    1
    24    15    26    1
    25    16    18    1
    26    16    26    1
    27    17    27    1
    28    18    27    1
    29    19    23    1
    30    20    23    1
    31    21    23    1
    32    22    33    1
    33    23    28    1
    34    29    33    1
    35    31    33    2
    36    32    33    2
    37     1    34    1
    38     2    35    1
    39     3    36    1
    40     4    37    1
    41     5    38    1
    42     6    39    1
    43     7    40    1
    44    15    41    1
    45    15    42    1
    46    16    43    1
    47    16    44    1
    48    17    45    1
    49    17    46    1
    50    18    47    1
    51    18    48    1
    52    19    49    1
    53    19    50    1
    54    19    51    1
    55    20    52    1
    56    20    53    1
    57    20    54    1
    58    21    55    1
    59    21    56    1
    60    21    57    1
    61    22    58    1
    62    22    59    1
    63    22    60    1
    64    25    61    1
    65    28    62    1
    66    29    63    1
