@<TRIPOS>MOLECULE
ChEBML352128
 50 53 0 0 0
SMALL
USER_CHARGES

@<TRIPOS>ATOM
      1 C         -11.9513   -5.5430    1.1601 C.ar    1  LIG1       -0.0601
      2 C         -12.7432   -4.5928    1.8017 C.ar    1  LIG1       -0.0581
      3 C         -10.6074   -5.2864    0.8732 C.ar    1  LIG1       -0.0402
      4 C          -2.4522    0.0308   -1.3397 C.ar    1  LIG1       -0.0303
      5 C          -3.9560    0.6656   -3.1209 C.ar    1  LIG1       -0.0303
      6 C          -1.3622    0.2478   -2.1826 C.ar    1  LIG1       -0.0409
      7 C          -2.8660    0.8827   -3.9637 C.ar    1  LIG1       -0.0409
      8 C         -10.0125   -1.9522    2.1280 C.ar    1  LIG1       -0.0269
      9 C         -10.8601   -3.0719    1.8980 C.ar    1  LIG1        0.0012
     10 C         -12.2124   -3.3532    2.1767 C.ar    1  LIG1       -0.0336
     11 C         -10.0904   -4.0430    1.2540 C.ar    1  LIG1        0.0381
     12 C          -3.7491    0.2397   -1.8088 C.ar    1  LIG1        0.0757
     13 C          -1.5691    0.6737   -3.4945 C.ar    1  LIG1        0.0408
     14 C          -8.7678   -2.2597    1.6289 C.ar    1  LIG1        0.0841
     15 C          -7.5842   -1.4840    1.6116 C.ar    1  LIG1        0.2203
     16 C          -5.7572   -0.6669    1.0882 C.ar    1  LIG1        0.1850
     17 C         -13.8097    0.0819    4.2744 C.3     1  LIG1       -0.0457
     18 C         -14.4488    1.1438    2.1147 C.3     1  LIG1       -0.0457
     19 C         -13.1111   -2.3722    2.8609 C.3     1  LIG1        0.0123
     20 C          -4.5182   -0.4098    0.3458 C.3     1  LIG1        0.1156
     21 C         -13.2585   -1.0434    2.1222 C.3     1  LIG1       -0.0307
     22 N          -6.6728   -1.5918    0.6781 N.ar    1  LIG1       -0.2002
     23 N          -6.0593   -0.0084    2.2110 N.ar    1  LIG1       -0.1087
     24 N          -8.8247   -3.5227    1.1035 N.ar    1  LIG1       -0.3108
     25 N         -14.2092   -0.1581    2.8391 N.4     1  LIG1        0.2420
     26 O          -7.2964   -0.5608    2.5662 O.2     1  LIG1       -0.1897
     27 O          -4.8170    0.0265   -0.9835 O.3     1  LIG1       -0.3380
     28 CL         -0.2245    0.9402   -4.5350 Cl      1  LIG1       -0.0843
     29 H         -12.3838   -6.4992    0.8771 H       1  LIG1        0.0623
     30 H         -13.7852   -4.8258    2.0089 H       1  LIG1        0.0626
     31 H          -9.9917   -6.0268    0.3738 H       1  LIG1        0.0642
     32 H          -2.2840   -0.3013   -0.3190 H       1  LIG1        0.0651
     33 H          -4.9639    0.8296   -3.4921 H       1  LIG1        0.0651
     34 H          -0.3569    0.0800   -1.8039 H       1  LIG1        0.0639
     35 H          -3.0421    1.2136   -4.9842 H       1  LIG1        0.0639
     36 H         -10.2886   -1.0221    2.6079 H       1  LIG1        0.0651
     37 H         -12.8436    0.5900    4.2715 H       1  LIG1        0.0777
     38 H         -14.5790    0.7037    4.7359 H       1  LIG1        0.0777
     39 H         -13.7409   -0.8890    4.7688 H       1  LIG1        0.0777
     40 H         -13.4975    1.6765    2.0619 H       1  LIG1        0.0777
     41 H         -14.8220    0.9071    1.1166 H       1  LIG1        0.0777
     42 H         -15.1859    1.7127    2.6847 H       1  LIG1        0.0777
     43 H         -14.1109   -2.8192    2.9632 H       1  LIG1        0.0370
     44 H         -12.7688   -2.1863    3.8892 H       1  LIG1        0.0370
     45 H          -3.8924    0.3714    0.8205 H       1  LIG1        0.0658
     46 H          -3.8791   -1.3111    0.2677 H       1  LIG1        0.0658
     47 H         -13.6748   -1.1956    1.1220 H       1  LIG1        0.0818
     48 H         -12.3136   -0.4974    2.0421 H       1  LIG1        0.0818
     49 H          -8.0526   -4.0087    0.6679 H       1  LIG1        0.1529
     50 H         -15.1245   -0.6388    2.8735 H       1  LIG1        0.1997
@<TRIPOS>BOND
     1     1     2   ar
     2     1     3   ar
     3     2    10   ar
     4     3    11   ar
     5     4     6   ar
     6     4    12   ar
     7     5     7   ar
     8     5    12   ar
     9     6    13   ar
    10     7    13   ar
    11     8     9   ar
    12     8    14   ar
    13     9    10   ar
    14     9    11   ar
    15    10    19    1
    16    11    24   ar
    17    12    27    1
    18    13    28    1
    19    14    15    1
    20    14    24   ar
    21    15    22   ar
    22    15    26   ar
    23    16    20    1
    24    16    22   ar
    25    16    23   ar
    26    17    25    1
    27    18    25    1
    28    19    21    1
    29    20    27    1
    30    21    25    1
    31    23    26   ar
    32     1    29    1
    33     2    30    1
    34     3    31    1
    35     4    32    1
    36     5    33    1
    37     6    34    1
    38     7    35    1
    39     8    36    1
    40    17    37    1
    41    17    38    1
    42    17    39    1
    43    18    40    1
    44    18    41    1
    45    18    42    1
    46    19    43    1
    47    19    44    1
    48    20    45    1
    49    20    46    1
    50    21    47    1
    51    21    48    1
    52    24    49    1
    53    25    50    1
