@<TRIPOS>MOLECULE
ChEBML960594
 50 54 0 0 0
SMALL
USER_CHARGES

@<TRIPOS>ATOM
      1 C          -2.8788    1.5570   -2.5045 C.ar    1  LIG1       -0.0589
      2 C         -11.8802   -6.4887   -0.3690 C.ar    1  LIG1       -0.0331
      3 C          -3.4868    0.9612   -1.4173 C.ar    1  LIG1       -0.0408
      4 C         -13.1699   -6.9158   -0.3231 C.ar    1  LIG1       -0.0296
      5 C          -2.4641    0.7866   -3.5754 C.ar    1  LIG1       -0.0434
      6 C         -12.1221   -3.4231    1.7146 C.ar    1  LIG1       -0.0411
      7 C         -13.8173   -5.0604    1.0585 C.ar    1  LIG1       -0.0224
      8 C         -10.0395   -1.8965    2.1911 C.ar    1  LIG1       -0.0141
      9 C          -3.2592   -1.1869   -2.4731 C.ar    1  LIG1       -0.0222
     10 C         -12.4906   -4.5948    1.0349 C.ar    1  LIG1        0.0036
     11 C         -10.7949   -3.0228    1.6409 C.ar    1  LIG1        0.0281
     12 C         -11.5048   -5.3142    0.3102 C.ar    1  LIG1        0.0735
     13 C          -3.6817   -0.4144   -1.3992 C.ar    1  LIG1        0.0301
     14 C         -14.1411   -6.2065    0.3917 C.ar    1  LIG1        0.0753
     15 C          -2.6563   -0.5838   -3.5611 C.ar    1  LIG1        0.0424
     16 C          -8.7627   -2.0557    1.7609 C.ar    1  LIG1        0.1473
     17 C          -9.8609   -3.7881    0.8984 C.ar    1  LIG1        0.1801
     18 C          -7.6485   -1.1505    2.0748 C.2     1  LIG1        0.2695
     19 C          -4.6176    0.0535    0.6470 C.3     1  LIG1        0.0274
     20 C          -5.5659   -1.5761   -0.7812 C.3     1  LIG1        0.0274
     21 C          -5.2761   -0.5437    1.8949 C.3     1  LIG1        0.0303
     22 C          -6.2854   -2.2853    0.3766 C.3     1  LIG1        0.0303
     23 C         -15.4509   -7.8603   -0.3579 C.3     1  LIG1        0.0422
     24 N         -10.2407   -4.8836    0.2726 N.ar    1  LIG1       -0.2233
     25 N          -4.2961   -1.0198   -0.3005 N.pl3   1  LIG1       -0.3276
     26 N          -6.4543   -1.3180    1.4728 N.am    1  LIG1       -0.2929
     27 O          -7.8039   -0.2501    2.8779 O.2     1  LIG1       -0.2693
     28 O          -8.6666   -3.1684    1.0027 O.2     1  LIG1       -0.2854
     29 O         -15.4219   -6.6607    0.4180 O.3     1  LIG1       -0.3493
     30 CL         -2.1345   -1.5468   -4.9079 Cl      1  LIG1       -0.0842
     31 H          -2.7273    2.6263   -2.5187 H       1  LIG1        0.0624
     32 H         -11.1444   -7.0501   -0.9256 H       1  LIG1        0.0646
     33 H          -3.8110    1.5640   -0.5819 H       1  LIG1        0.0642
     34 H         -13.4494   -7.8179   -0.8471 H       1  LIG1        0.0651
     35 H          -1.9894    1.2553   -4.4248 H       1  LIG1        0.0638
     36 H         -12.8469   -2.8519    2.2758 H       1  LIG1        0.0637
     37 H         -14.5744   -4.5166    1.6039 H       1  LIG1        0.0657
     38 H         -10.4210   -1.1004    2.8132 H       1  LIG1        0.0660
     39 H          -3.4052   -2.2569   -2.4601 H       1  LIG1        0.0658
     40 H          -5.3031    0.7590    0.1774 H       1  LIG1        0.0485
     41 H          -3.7024    0.5721    0.9324 H       1  LIG1        0.0485
     42 H          -6.1934   -0.7711   -1.1635 H       1  LIG1        0.0485
     43 H          -5.3696   -2.2929   -1.5785 H       1  LIG1        0.0485
     44 H          -5.5846    0.2577    2.5662 H       1  LIG1        0.0486
     45 H          -4.5696   -1.1989    2.4047 H       1  LIG1        0.0486
     46 H          -5.6890   -3.1300    0.7211 H       1  LIG1        0.0486
     47 H          -7.2619   -2.6365    0.0432 H       1  LIG1        0.0486
     48 H         -15.1393   -7.6401   -1.3791 H       1  LIG1        0.0535
     49 H         -14.7718   -8.5923    0.0792 H       1  LIG1        0.0535
     50 H         -16.4635   -8.2634   -0.3660 H       1  LIG1        0.0535
@<TRIPOS>BOND
     1     1     3   ar
     2     1     5   ar
     3     2     4   ar
     4     2    12   ar
     5     3    13   ar
     6     4    14   ar
     7     5    15   ar
     8     6    10   ar
     9     6    11   ar
    10     7    10   ar
    11     7    14   ar
    12     8    11   ar
    13     8    16   ar
    14     9    13   ar
    15     9    15   ar
    16    10    12   ar
    17    11    17   ar
    18    12    24   ar
    19    13    25    1
    20    14    29    1
    21    15    30    1
    22    16    18    1
    23    16    28   ar
    24    17    24   ar
    25    17    28   ar
    26    18    26   am
    27    18    27    2
    28    19    21    1
    29    19    25    1
    30    20    22    1
    31    20    25    1
    32    21    26    1
    33    22    26    1
    34    23    29    1
    35     1    31    1
    36     2    32    1
    37     3    33    1
    38     4    34    1
    39     5    35    1
    40     6    36    1
    41     7    37    1
    42     8    38    1
    43     9    39    1
    44    19    40    1
    45    19    41    1
    46    20    42    1
    47    20    43    1
    48    21    44    1
    49    21    45    1
    50    22    46    1
    51    22    47    1
    52    23    48    1
    53    23    49    1
    54    23    50    1
