@<TRIPOS>MOLECULE
ChEBML233529
 33 35 0 0 0
SMALL
USER_CHARGES

@<TRIPOS>ATOM
      1 C          -4.3350   -2.6816   -0.0997 C.ar    1  LIG1       -0.0589
      2 C          -5.4512   -2.5579    0.7276 C.ar    1  LIG1       -0.0508
      3 C         -10.3847   -4.8814    0.1241 C.ar    1  LIG1       -0.0376
      4 C          -3.9616   -1.6247   -0.9300 C.ar    1  LIG1       -0.0320
      5 C         -11.6504   -5.3290    0.5135 C.ar    1  LIG1       -0.0299
      6 C         -11.7995   -3.6054    2.2175 C.ar    1  LIG1       -0.0226
      7 C          -9.6851   -2.0796    2.2934 C.ar    1  LIG1       -0.0275
      8 C          -5.8206   -0.3203   -0.1056 C.ar    1  LIG1       -0.0208
      9 C         -10.5248   -3.1363    1.8425 C.ar    1  LIG1        0.0003
     10 C          -6.1940   -1.3772    0.7247 C.ar    1  LIG1        0.0264
     11 C          -9.8482   -3.7839    0.8066 C.ar    1  LIG1        0.0379
     12 C         -12.3487   -4.7024    1.5437 C.ar    1  LIG1        0.0753
     13 C          -4.7044   -0.4441   -0.9329 C.ar    1  LIG1        0.0720
     14 C          -8.5362   -2.1059    1.5369 C.ar    1  LIG1        0.0797
     15 C          -7.4007   -1.2428    1.6190 C.2     1  LIG1        0.2067
     16 C         -14.0883   -6.2823    1.1786 C.3     1  LIG1        0.0422
     17 N          -8.6440   -3.1370    0.6427 N.ar    1  LIG1       -0.3112
     18 O          -7.3502   -0.3119    2.4565 O.2     1  LIG1       -0.2871
     19 O          -4.3402    0.5873   -1.7427 O.3     1  LIG1       -0.3609
     20 O         -13.5812   -5.1621    1.9006 O.3     1  LIG1       -0.3493
     21 H          -3.7568   -3.6008   -0.0973 H       1  LIG1        0.0624
     22 H          -5.7328   -3.3870    1.3713 H       1  LIG1        0.0630
     23 H          -9.8420   -5.3697   -0.6783 H       1  LIG1        0.0643
     24 H          -3.0911   -1.7272   -1.5721 H       1  LIG1        0.0650
     25 H         -12.0902   -6.1805   -0.0009 H       1  LIG1        0.0651
     26 H         -12.3507   -3.1216    3.0194 H       1  LIG1        0.0657
     27 H          -9.9023   -1.3774    3.0874 H       1  LIG1        0.0651
     28 H          -6.3960    0.6028   -0.1113 H       1  LIG1        0.0658
     29 H         -15.0768   -6.5467    1.5621 H       1  LIG1        0.0535
     30 H         -13.4048   -7.1278    1.2889 H       1  LIG1        0.0535
     31 H         -14.1691   -6.0170    0.1217 H       1  LIG1        0.0535
     32 H          -7.9433   -3.3897   -0.0406 H       1  LIG1        0.1529
     33 H          -3.5496    0.3509   -2.2537 H       1  LIG1        0.2182
@<TRIPOS>BOND
     1     1     2   ar
     2     1     4   ar
     3     2    10   ar
     4     3     5   ar
     5     3    11   ar
     6     4    13   ar
     7     5    12   ar
     8     6     9   ar
     9     6    12   ar
    10     7     9   ar
    11     7    14   ar
    12     8    10   ar
    13     8    13   ar
    14     9    11   ar
    15    10    15    1
    16    11    17   ar
    17    12    20    1
    18    13    19    1
    19    14    15    1
    20    14    17   ar
    21    15    18    2
    22    16    20    1
    23     1    21    1
    24     2    22    1
    25     3    23    1
    26     4    24    1
    27     5    25    1
    28     6    26    1
    29     7    27    1
    30     8    28    1
    31    16    29    1
    32    16    30    1
    33    16    31    1
    34    17    32    1
    35    19    33    1
