@<TRIPOS>MOLECULE
ChEBML1096682
 43 46 0 0 0
SMALL
USER_CHARGES

@<TRIPOS>ATOM
      1 C          -2.2131    1.5371   -3.0921 C.ar    1  LIG1       -0.0598
      2 C          -8.2554   -3.2377    1.4563 C.ar    1  LIG1       -0.0474
      3 C          -1.5673    0.3625   -3.4776 C.ar    1  LIG1       -0.0499
      4 C          -9.1299   -4.3088    1.2508 C.ar    1  LIG1       -0.0345
      5 C          -3.3819    1.4738   -2.3335 C.ar    1  LIG1       -0.0409
      6 C         -10.1229   -1.7126    1.7118 C.ar    1  LIG1       -0.0334
      7 C          -3.2591   -0.9391   -2.3459 C.ar    1  LIG1       -0.0287
      8 C         -12.6913   -4.4905    1.1759 C.ar    1  LIG1        0.0653
      9 C          -8.7477   -1.9573    1.6836 C.ar    1  LIG1        0.0385
     10 C          -2.0903   -0.8756   -3.1045 C.ar    1  LIG1        0.0573
     11 C         -10.5242   -4.0891    1.2744 C.ar    1  LIG1        0.0776
     12 C          -3.9049    0.2357   -1.9603 C.ar    1  LIG1        0.0292
     13 C         -10.9954   -2.7931    1.5049 C.ar    1  LIG1        0.0396
     14 C          -7.8172   -0.8524    1.8964 C.2     1  LIG1        0.2457
     15 C          -5.9314   -0.9877   -1.3815 C.3     1  LIG1        0.0274
     16 C          -5.1253    0.9194    0.0452 C.3     1  LIG1        0.0274
     17 C          -7.2069   -0.8250   -0.5544 C.3     1  LIG1        0.0302
     18 C          -5.6318    0.0234    1.1730 C.3     1  LIG1        0.0302
     19 C          -1.4000   -2.1313   -3.5174 C.3     1  LIG1        0.4160
     20 N         -11.5073   -5.0501    1.0880 N.ar    1  LIG1       -0.2484
     21 N          -5.0536    0.1735   -1.2143 N.pl3   1  LIG1       -0.3276
     22 N          -6.9263   -0.5765    0.8632 N.am    1  LIG1       -0.2947
     23 O          -7.9089   -0.2569    2.9654 O.2     1  LIG1       -0.2716
     24 F          -0.2704   -1.9180   -4.2554 F       1  LIG1       -0.1661
     25 F          -0.9973   -2.9052   -2.4663 F       1  LIG1       -0.1661
     26 F          -2.1907   -2.9379   -4.2838 F       1  LIG1       -0.1661
     27 S         -12.7195   -2.8078    1.4822 S.2     1  LIG1       -0.0757
     28 H          -1.8057    2.5013   -3.3826 H       1  LIG1        0.0623
     29 H          -7.1837   -3.4214    1.4361 H       1  LIG1        0.0631
     30 H          -0.6569    0.4213   -4.0687 H       1  LIG1        0.0629
     31 H          -8.7344   -5.3051    1.0739 H       1  LIG1        0.0646
     32 H          -3.8769    2.3954   -2.0382 H       1  LIG1        0.0642
     33 H         -10.5103   -0.7132    1.8898 H       1  LIG1        0.0643
     34 H          -3.6655   -1.9052   -2.0556 H       1  LIG1        0.0648
     35 H         -13.6044   -5.0585    1.0618 H       1  LIG1        0.0920
     36 H          -5.4003   -1.8945   -1.0649 H       1  LIG1        0.0485
     37 H          -6.1984   -1.1074   -2.4383 H       1  LIG1        0.0485
     38 H          -5.8036    1.7700   -0.0927 H       1  LIG1        0.0485
     39 H          -4.1444    1.3257    0.3211 H       1  LIG1        0.0485
     40 H          -7.7877    0.0322   -0.9163 H       1  LIG1        0.0486
     41 H          -7.8315   -1.7176   -0.6619 H       1  LIG1        0.0486
     42 H          -4.9329   -0.8041    1.3466 H       1  LIG1        0.0486
     43 H          -5.7006    0.5928    2.1064 H       1  LIG1        0.0486
@<TRIPOS>BOND
     1     1     3   ar
     2     1     5   ar
     3     2     4   ar
     4     2     9   ar
     5     3    10   ar
     6     4    11   ar
     7     5    12   ar
     8     6     9   ar
     9     6    13   ar
    10     7    10   ar
    11     7    12   ar
    12     8    20   ar
    13     8    27   ar
    14     9    14    1
    15    10    19    1
    16    11    13   ar
    17    11    20   ar
    18    12    21    1
    19    13    27   ar
    20    14    22   am
    21    14    23    2
    22    15    17    1
    23    15    21    1
    24    16    18    1
    25    16    21    1
    26    17    22    1
    27    18    22    1
    28    19    24    1
    29    19    25    1
    30    19    26    1
    31     1    28    1
    32     2    29    1
    33     3    30    1
    34     4    31    1
    35     5    32    1
    36     6    33    1
    37     7    34    1
    38     8    35    1
    39    15    36    1
    40    15    37    1
    41    16    38    1
    42    16    39    1
    43    17    40    1
    44    17    41    1
    45    18    42    1
    46    18    43    1
