@<TRIPOS>MOLECULE
ChEBML31304
 51 54 0 0 0
SMALL
USER_CHARGES

@<TRIPOS>ATOM
      1 C          -0.2976   -4.3154   -1.9111 C.ar    1  LIG1       -0.0622
      2 C         -10.9023   -3.4420    1.1349 C.ar    1  LIG1       -0.0622
      3 C          -1.6110   -4.2541   -1.4809 C.ar    1  LIG1       -0.0616
      4 C           0.3098   -3.1997   -2.4590 C.ar    1  LIG1       -0.0616
      5 C         -10.7545   -2.1890    1.6999 C.ar    1  LIG1       -0.0618
      6 C          -9.8072   -4.2758    1.0065 C.ar    1  LIG1       -0.0618
      7 C          -2.3235   -3.0781   -1.5961 C.ar    1  LIG1       -0.0530
      8 C          -0.3941   -2.0198   -2.5857 C.ar    1  LIG1       -0.0530
      9 C          -9.5117   -1.7701    2.1368 C.ar    1  LIG1       -0.0538
     10 C          -8.5637   -3.8553    1.4396 C.ar    1  LIG1       -0.0538
     11 C          -2.2440    0.3103   -3.1811 C.ar    1  LIG1       -0.0155
     12 C          -1.7170   -1.9497   -2.1481 C.ar    1  LIG1       -0.0024
     13 C          -8.4168   -2.6043    2.0093 C.ar    1  LIG1       -0.0042
     14 C          -2.4753   -0.6853   -2.2745 C.ar    1  LIG1        0.0601
     15 C          -3.1820    1.3184   -2.9578 C.ar    1  LIG1        0.0576
     16 C          -4.4038   -0.1262    0.7733 C.3     1  LIG1        0.0073
     17 C          -5.4483   -1.6849   -0.8710 C.3     1  LIG1        0.0073
     18 C          -5.0967   -0.9122    1.8884 C.3     1  LIG1       -0.0321
     19 C          -6.1025   -2.4131    0.3051 C.3     1  LIG1       -0.0321
     20 C          -4.1284   -1.0613   -0.4078 C.3     1  LIG1        0.0556
     21 C          -3.2904    2.6063   -3.7329 C.3     1  LIG1       -0.0206
     22 C          -7.0620   -2.1477    2.4855 C.3     1  LIG1       -0.0083
     23 N          -3.9487    0.9612   -1.9589 N.ar    1  LIG1       -0.1860
     24 N          -3.5341   -0.2986   -1.5084 N.ar    1  LIG1       -0.2212
     25 N          -6.3640   -1.4605    1.3908 N.4     1  LIG1        0.2494
     26 H           0.2560   -5.2381   -1.8185 H       1  LIG1        0.0622
     27 H         -11.8734   -3.7695    0.7942 H       1  LIG1        0.0622
     28 H          -2.0796   -5.1283   -1.0538 H       1  LIG1        0.0623
     29 H           1.3355   -3.2537   -2.7927 H       1  LIG1        0.0623
     30 H         -11.6099   -1.5375    1.8001 H       1  LIG1        0.0623
     31 H          -9.9229   -5.2549    0.5655 H       1  LIG1        0.0623
     32 H          -3.3486   -3.0312   -1.2593 H       1  LIG1        0.0629
     33 H           0.0796   -1.1508   -3.0180 H       1  LIG1        0.0629
     34 H          -9.3962   -0.7912    2.5781 H       1  LIG1        0.0628
     35 H          -7.7075   -4.5053    1.3359 H       1  LIG1        0.0628
     36 H          -1.4721    0.3159   -3.9364 H       1  LIG1        0.0663
     37 H          -3.4622    0.2787    1.1442 H       1  LIG1        0.0340
     38 H          -5.0488    0.6902    0.4484 H       1  LIG1        0.0340
     39 H          -6.1151   -0.9008   -1.2299 H       1  LIG1        0.0340
     40 H          -5.2532   -2.3942   -1.6753 H       1  LIG1        0.0340
     41 H          -4.4506   -1.7281    2.2126 H       1  LIG1        0.0815
     42 H          -5.2939   -0.2493    2.7309 H       1  LIG1        0.0815
     43 H          -5.4351   -3.1970    0.6631 H       1  LIG1        0.0815
     44 H          -7.0423   -2.8584   -0.0213 H       1  LIG1        0.0815
     45 H          -3.4420   -1.8493   -0.0981 H       1  LIG1        0.0531
     46 H          -2.6692    3.3676   -3.2612 H       1  LIG1        0.0296
     47 H          -2.9521    2.4439   -4.7562 H       1  LIG1        0.0296
     48 H          -4.3284    2.9386   -3.7418 H       1  LIG1        0.0296
     49 H          -6.4782   -3.0118    2.8029 H       1  LIG1        0.0869
     50 H          -7.1837   -1.4632    3.3251 H       1  LIG1        0.0869
     51 H          -6.9420   -0.7090    1.0455 H       1  LIG1        0.2007
@<TRIPOS>BOND
     1     1     3   ar
     2     1     4   ar
     3     2     5   ar
     4     2     6   ar
     5     3     7   ar
     6     4     8   ar
     7     5     9   ar
     8     6    10   ar
     9     7    12   ar
    10     8    12   ar
    11     9    13   ar
    12    10    13   ar
    13    11    14   ar
    14    11    15   ar
    15    12    14    1
    16    13    22    1
    17    14    24   ar
    18    15    21    1
    19    15    23   ar
    20    16    18    1
    21    16    20    1
    22    17    19    1
    23    17    20    1
    24    18    25    1
    25    19    25    1
    26    20    24    1
    27    22    25    1
    28    23    24   ar
    29     1    26    1
    30     2    27    1
    31     3    28    1
    32     4    29    1
    33     5    30    1
    34     6    31    1
    35     7    32    1
    36     8    33    1
    37     9    34    1
    38    10    35    1
    39    11    36    1
    40    16    37    1
    41    16    38    1
    42    17    39    1
    43    17    40    1
    44    18    41    1
    45    18    42    1
    46    19    43    1
    47    19    44    1
    48    20    45    1
    49    21    46    1
    50    21    47    1
    51    21    48    1
    52    22    49    1
    53    22    50    1
    54    25    51    1
