@<TRIPOS>MOLECULE
ChEBML107767
 60 62 0 0 0
SMALL
USER_CHARGES

@<TRIPOS>ATOM
      1 C          -8.8009   -2.0399    2.1017 C.ar    1  LIG1       -0.0474
      2 C          -2.7735    0.3905   -0.3882 C.ar    1  LIG1       -0.0581
      3 C          -3.1147    0.3127    0.9621 C.ar    1  LIG1       -0.0571
      4 C         -10.0908   -2.2585    2.5943 C.ar    1  LIG1       -0.0344
      5 C          -9.1304   -3.7202    0.3851 C.ar    1  LIG1       -0.0334
      6 C          -8.3290   -2.7623    1.0114 C.ar    1  LIG1        0.0386
      7 C          -3.6627   -0.0690   -1.3598 C.ar    1  LIG1       -0.0406
      8 C          -4.3449   -0.2248    1.3407 C.ar    1  LIG1       -0.0294
      9 C          -4.8929   -0.6064   -0.9811 C.ar    1  LIG1       -0.0259
     10 C         -10.9214   -3.2206    1.9799 C.ar    1  LIG1        0.0799
     11 C          -5.2340   -0.6844    0.3691 C.ar    1  LIG1        0.0389
     12 C         -10.4250   -3.9346    0.8850 C.ar    1  LIG1        0.0416
     13 C         -12.6849   -4.4795    1.5644 C.ar    1  LIG1        0.1663
     14 C          -6.9830   -2.5204    0.5149 C.2     1  LIG1        0.2473
     15 C         -14.4605   -6.0732    0.7786 C.2     1  LIG1        0.3571
     16 C          -4.6813   -0.2951    2.7954 C.3     1  LIG1       -0.0379
     17 C          -5.8415   -1.0989   -2.0291 C.3     1  LIG1       -0.0376
     18 C          -2.0209   -0.8105   -3.1228 C.3     1  LIG1       -0.0587
     19 C          -3.0622    1.4816   -3.2544 C.3     1  LIG1       -0.0587
     20 C         -15.6076   -8.6792    0.5093 C.3     1  LIG1       -0.0356
     21 C         -17.8003   -7.5647    1.0184 C.3     1  LIG1       -0.0356
     22 C         -16.5133   -6.9121   -1.0372 C.3     1  LIG1       -0.0356
     23 C          -3.2719    0.0261   -2.7984 C.3     1  LIG1       -0.0215
     24 C         -16.4103   -7.3826    0.4129 C.3     1  LIG1        0.0712
     25 N         -12.2169   -3.5436    2.3568 N.ar    1  LIG1       -0.2252
     26 N          -6.4833   -1.2316    0.7563 N.am    1  LIG1       -0.2808
     27 N         -13.9596   -5.0885    1.6078 N.am    1  LIG1       -0.2395
     28 O          -6.3521   -3.3880   -0.1042 O.2     1  LIG1       -0.2715
     29 O         -13.8981   -6.6178   -0.1636 O.2     1  LIG1       -0.2420
     30 O         -15.7393   -6.3753    1.1711 O.3     1  LIG1       -0.2943
     31 S         -11.6343   -5.0328    0.3331 S.2     1  LIG1       -0.0518
     32 H          -8.1724   -1.2948    2.5835 H       1  LIG1        0.0631
     33 H          -1.8133    0.8126   -0.6726 H       1  LIG1        0.0626
     34 H          -2.4159    0.6738    1.7120 H       1  LIG1        0.0626
     35 H         -10.4495   -1.6889    3.4471 H       1  LIG1        0.0646
     36 H          -8.7636   -4.2868   -0.4665 H       1  LIG1        0.0643
     37 H          -5.1912    0.6220    3.1109 H       1  LIG1        0.0280
     38 H          -5.3335   -1.1503    3.0093 H       1  LIG1        0.0280
     39 H          -3.7779   -0.4211    3.4042 H       1  LIG1        0.0280
     40 H          -5.6550   -2.1574   -2.2382 H       1  LIG1        0.0280
     41 H          -6.8814   -0.9818   -1.7042 H       1  LIG1        0.0280
     42 H          -5.7288   -0.5307   -2.9593 H       1  LIG1        0.0280
     43 H          -1.1538   -0.4834   -2.5387 H       1  LIG1        0.0236
     44 H          -1.7546   -0.7361   -4.1827 H       1  LIG1        0.0236
     45 H          -2.1972   -1.8677   -2.8949 H       1  LIG1        0.0236
     46 H          -2.2672    1.9560   -2.6682 H       1  LIG1        0.0236
     47 H          -3.9736    2.0754   -3.1255 H       1  LIG1        0.0236
     48 H          -2.7766    1.5366   -4.3105 H       1  LIG1        0.0236
     49 H         -14.6092   -8.5525    0.0758 H       1  LIG1        0.0260
     50 H         -15.4966   -9.0087    1.5476 H       1  LIG1        0.0260
     51 H         -16.0917   -9.4819   -0.0586 H       1  LIG1        0.0260
     52 H         -18.3798   -6.6368    0.9513 H       1  LIG1        0.0260
     53 H         -17.7326   -7.8100    2.0844 H       1  LIG1        0.0260
     54 H         -18.3595   -8.3598    0.5146 H       1  LIG1        0.0260
     55 H         -17.0889   -5.9821   -1.1067 H       1  LIG1        0.0260
     56 H         -15.5253   -6.7407   -1.4768 H       1  LIG1        0.0260
     57 H         -17.0435   -7.6505   -1.6497 H       1  LIG1        0.0260
     58 H          -4.0826   -0.3785   -3.4325 H       1  LIG1        0.0346
     59 H          -7.0969   -0.6092    1.2765 H       1  LIG1        0.1560
     60 H         -14.5854   -4.7611    2.3398 H       1  LIG1        0.1602
@<TRIPOS>BOND
     1     1     4   ar
     2     1     6   ar
     3     2     3   ar
     4     2     7   ar
     5     3     8   ar
     6     4    10   ar
     7     5     6   ar
     8     5    12   ar
     9     6    14    1
    10     7     9   ar
    11     7    23    1
    12     8    11   ar
    13     8    16    1
    14     9    11   ar
    15     9    17    1
    16    10    12   ar
    17    10    25   ar
    18    11    26    1
    19    12    31   ar
    20    13    25   ar
    21    13    27    1
    22    13    31   ar
    23    14    26   am
    24    14    28    2
    25    15    27   am
    26    15    29    2
    27    15    30    1
    28    18    23    1
    29    19    23    1
    30    20    24    1
    31    21    24    1
    32    22    24    1
    33    24    30    1
    34     1    32    1
    35     2    33    1
    36     3    34    1
    37     4    35    1
    38     5    36    1
    39    16    37    1
    40    16    38    1
    41    16    39    1
    42    17    40    1
    43    17    41    1
    44    17    42    1
    45    18    43    1
    46    18    44    1
    47    18    45    1
    48    19    46    1
    49    19    47    1
    50    19    48    1
    51    20    49    1
    52    20    50    1
    53    20    51    1
    54    21    52    1
    55    21    53    1
    56    21    54    1
    57    22    55    1
    58    22    56    1
    59    22    57    1
    60    23    58    1
    61    26    59    1
    62    27    60    1
