@<TRIPOS>MOLECULE
ChEBML916262
 46 49 0 0 0
SMALL
USER_CHARGES

@<TRIPOS>ATOM
      1 C         -10.9837   -5.8684    1.1995 C.ar    1  LIG1       -0.0616
      2 C         -12.1939   -5.2044    1.0053 C.ar    1  LIG1       -0.0616
      3 C          -3.7041    1.2203   -3.1429 C.ar    1  LIG1       -0.0602
      4 C          -2.5243    0.6883   -3.6294 C.ar    1  LIG1       -0.0595
      5 C          -9.8439   -5.1798    1.4788 C.ar    1  LIG1       -0.0543
      6 C         -12.2711   -3.8483    1.0894 C.ar    1  LIG1       -0.0543
      7 C          -4.3081    0.6672   -2.0293 C.ar    1  LIG1       -0.0382
      8 C          -1.9427   -0.3997   -3.0047 C.ar    1  LIG1       -0.0301
      9 C          -8.7265   -3.0385    1.8607 C.ar    1  LIG1       -0.0391
     10 C         -11.1647   -1.7000    1.4697 C.ar    1  LIG1       -0.0234
     11 C          -9.8834   -3.7765    1.5739 C.ar    1  LIG1       -0.0174
     12 C         -11.1154   -3.1007    1.3762 C.ar    1  LIG1       -0.0157
     13 C          -8.8015   -1.6578    1.9475 C.ar    1  LIG1        0.0678
     14 C          -3.7330   -0.4276   -1.4006 C.ar    1  LIG1        0.0592
     15 C          -2.5412   -0.9594   -1.8882 C.ar    1  LIG1        0.0925
     16 C         -10.0321   -0.9956    1.7551 C.ar    1  LIG1        0.0845
     17 C          -7.5870   -0.8752    2.2491 C.2     1  LIG1        0.2483
     18 C          -4.5358    0.0935    0.6914 C.3     1  LIG1        0.0275
     19 C          -5.6771   -1.4398   -0.7017 C.3     1  LIG1        0.0275
     20 C          -5.1837   -0.4605    1.9644 C.3     1  LIG1        0.0302
     21 C          -6.4002   -2.0951    0.4794 C.3     1  LIG1        0.0302
     22 N          -4.3457   -0.9930   -0.2764 N.pl3   1  LIG1       -0.3255
     23 N          -6.4389   -1.1325    1.5920 N.am    1  LIG1       -0.2946
     24 O          -7.6225    0.0018    3.0906 O.2     1  LIG1       -0.2715
     25 O          -1.9699   -2.0292   -1.2724 O.3     1  LIG1       -0.3589
     26 O         -10.0888    0.3572    1.8493 O.3     1  LIG1       -0.3600
     27 H         -10.9502   -6.9455    1.1268 H       1  LIG1        0.0623
     28 H         -13.0839   -5.7749    0.7844 H       1  LIG1        0.0623
     29 H          -4.1545    2.0702   -3.6338 H       1  LIG1        0.0623
     30 H          -2.0557    1.1238   -4.4995 H       1  LIG1        0.0623
     31 H          -8.9134   -5.7077    1.6265 H       1  LIG1        0.0629
     32 H         -13.2160   -3.3483    0.9360 H       1  LIG1        0.0629
     33 H          -5.2294    1.0850   -1.6511 H       1  LIG1        0.0643
     34 H          -1.0211   -0.8128   -3.3874 H       1  LIG1        0.0651
     35 H          -7.7835   -3.5427    2.0125 H       1  LIG1        0.0638
     36 H         -12.1001   -1.1814    1.3201 H       1  LIG1        0.0657
     37 H          -3.5695    0.5334    0.9377 H       1  LIG1        0.0485
     38 H          -5.1819    0.8568    0.2578 H       1  LIG1        0.0485
     39 H          -6.2535   -0.5828   -1.0502 H       1  LIG1        0.0485
     40 H          -5.5759   -2.1624   -1.5115 H       1  LIG1        0.0485
     41 H          -4.5108   -1.1756    2.4374 H       1  LIG1        0.0486
     42 H          -5.3954    0.3566    2.6540 H       1  LIG1        0.0486
     43 H          -5.8620   -2.9914    0.7878 H       1  LIG1        0.0486
     44 H          -7.4165   -2.3589    0.1867 H       1  LIG1        0.0486
     45 H          -2.3318   -2.8206   -1.6942 H       1  LIG1        0.2183
     46 H          -9.9209    0.7064    0.9633 H       1  LIG1        0.2182
@<TRIPOS>BOND
     1     1     2   ar
     2     1     5   ar
     3     2     6   ar
     4     3     4   ar
     5     3     7   ar
     6     4     8   ar
     7     5    11   ar
     8     6    12   ar
     9     7    14   ar
    10     8    15   ar
    11     9    11   ar
    12     9    13   ar
    13    10    12   ar
    14    10    16   ar
    15    11    12   ar
    16    13    16   ar
    17    13    17    1
    18    14    15   ar
    19    14    22    1
    20    15    25    1
    21    16    26    1
    22    17    23   am
    23    17    24    2
    24    18    20    1
    25    18    22    1
    26    19    21    1
    27    19    22    1
    28    20    23    1
    29    21    23    1
    30     1    27    1
    31     2    28    1
    32     3    29    1
    33     4    30    1
    34     5    31    1
    35     6    32    1
    36     7    33    1
    37     8    34    1
    38     9    35    1
    39    10    36    1
    40    18    37    1
    41    18    38    1
    42    19    39    1
    43    19    40    1
    44    20    41    1
    45    20    42    1
    46    21    43    1
    47    21    44    1
    48    25    45    1
    49    26    46    1
