@<TRIPOS>MOLECULE
ChEBML418024
 50 54 0 0 0
SMALL
USER_CHARGES

@<TRIPOS>ATOM
      1 C          -0.0127   -0.7761   -3.6627 C.ar    1  LIG1       -0.0600
      2 C          -0.2837   -1.7595   -2.7223 C.ar    1  LIG1       -0.0602
      3 C          -0.8867    0.2545   -3.8653 C.ar    1  LIG1       -0.0344
      4 C          -1.4385   -1.7080   -1.9704 C.ar    1  LIG1       -0.0383
      5 C         -10.4127   -5.1298    0.4813 C.ar    1  LIG1       -0.0376
      6 C         -11.7408   -5.4438    0.6564 C.ar    1  LIG1       -0.0299
      7 C         -12.1034   -3.4049    1.8797 C.ar    1  LIG1       -0.0226
      8 C          -9.9651   -1.9702    2.1216 C.ar    1  LIG1       -0.0261
      9 C          -3.9618    0.8271   -2.1829 C.ar    1  LIG1        0.0880
     10 C         -10.7517   -3.0745    1.7136 C.ar    1  LIG1        0.0004
     11 C          -2.0613    0.3292   -3.1127 C.ar    1  LIG1        0.0860
     12 C          -9.9018   -3.9457    1.0056 C.ar    1  LIG1        0.0380
     13 C          -2.3347   -0.6649   -2.1575 C.ar    1  LIG1        0.0600
     14 C         -12.5865   -4.5854    1.3569 C.ar    1  LIG1        0.0753
     15 C          -8.6986   -2.1761    1.6743 C.ar    1  LIG1        0.0947
     16 C          -7.5624   -1.2662    1.8831 C.2     1  LIG1        0.2598
     17 C          -4.4306   -0.1620    0.6848 C.3     1  LIG1       -0.0181
     18 C          -5.6221   -1.5031   -1.0566 C.3     1  LIG1       -0.0181
     19 C          -5.1366   -0.9483    1.7938 C.3     1  LIG1        0.0162
     20 C          -6.3408   -2.3094    0.0358 C.3     1  LIG1        0.0162
     21 C          -4.2507   -1.0633   -0.5389 C.3     1  LIG1        0.0317
     22 C         -14.0915   -6.1728    0.8778 C.3     1  LIG1        0.0422
     23 N          -3.0941    1.2099   -3.0735 N.ar    1  LIG1       -0.2392
     24 N          -8.6483   -3.3765    0.9931 N.ar    1  LIG1       -0.3101
     25 N          -3.5463   -0.3246   -1.5897 N.ar    1  LIG1       -0.2866
     26 N          -6.3902   -1.4978    1.2594 N.am    1  LIG1       -0.2966
     27 O          -7.6804   -0.3046    2.6187 O.2     1  LIG1       -0.2702
     28 O         -13.8965   -4.9114    1.5205 O.3     1  LIG1       -0.3493
     29 H           0.8958   -0.8288   -4.2444 H       1  LIG1        0.0623
     30 H           0.4147   -2.5705   -2.5778 H       1  LIG1        0.0623
     31 H          -0.6651    1.0153   -4.5991 H       1  LIG1        0.0646
     32 H          -1.6444   -2.4756   -1.2391 H       1  LIG1        0.0643
     33 H          -9.7661   -5.8024   -0.0628 H       1  LIG1        0.0643
     34 H         -12.1315   -6.3641    0.2478 H       1  LIG1        0.0651
     35 H         -12.7625   -2.7401    2.4183 H       1  LIG1        0.0657
     36 H         -10.3098   -1.1172    2.6872 H       1  LIG1        0.0651
     37 H          -4.8787    1.3475   -1.9488 H       1  LIG1        0.1016
     38 H          -5.0335    0.7046    0.4130 H       1  LIG1        0.0302
     39 H          -3.4546    0.1699    1.0388 H       1  LIG1        0.0302
     40 H          -6.2136   -0.6240   -1.3121 H       1  LIG1        0.0302
     41 H          -5.4941   -2.1259   -1.9420 H       1  LIG1        0.0302
     42 H          -5.3558   -0.2843    2.6299 H       1  LIG1        0.0470
     43 H          -4.4947   -1.7627    2.1298 H       1  LIG1        0.0470
     44 H          -5.7951   -3.2325    0.2313 H       1  LIG1        0.0470
     45 H          -7.3548   -2.5437   -0.2885 H       1  LIG1        0.0470
     46 H          -3.6688   -1.9418   -0.2604 H       1  LIG1        0.0511
     47 H         -15.1330   -6.4770    0.9831 H       1  LIG1        0.0535
     48 H         -13.8443   -6.0837   -0.1800 H       1  LIG1        0.0535
     49 H         -13.4463   -6.9197    1.3401 H       1  LIG1        0.0535
     50 H          -7.8597   -3.7560    0.5747 H       1  LIG1        0.1529
@<TRIPOS>BOND
     1     1     2   ar
     2     1     3   ar
     3     2     4   ar
     4     3    11   ar
     5     4    13   ar
     6     5     6   ar
     7     5    12   ar
     8     6    14   ar
     9     7    10   ar
    10     7    14   ar
    11     8    10   ar
    12     8    15   ar
    13     9    23   ar
    14     9    25   ar
    15    10    12   ar
    16    11    13   ar
    17    11    23   ar
    18    12    24   ar
    19    13    25   ar
    20    14    28    1
    21    15    16    1
    22    15    24   ar
    23    16    26   am
    24    16    27    2
    25    17    19    1
    26    17    21    1
    27    18    20    1
    28    18    21    1
    29    19    26    1
    30    20    26    1
    31    21    25    1
    32    22    28    1
    33     1    29    1
    34     2    30    1
    35     3    31    1
    36     4    32    1
    37     5    33    1
    38     6    34    1
    39     7    35    1
    40     8    36    1
    41     9    37    1
    42    17    38    1
    43    17    39    1
    44    18    40    1
    45    18    41    1
    46    19    42    1
    47    19    43    1
    48    20    44    1
    49    20    45    1
    50    21    46    1
    51    22    47    1
    52    22    48    1
    53    22    49    1
    54    24    50    1
