@<TRIPOS>MOLECULE
ChEBML407862
 46 49 0 0 0
SMALL
USER_CHARGES

@<TRIPOS>ATOM
      1 C         -11.9781   -5.6419    1.0796 C.ar    1  LIG1       -0.0615
      2 C         -10.9426   -6.0366    0.2347 C.ar    1  LIG1       -0.0603
      3 C         -11.8723   -4.4753    1.8457 C.ar    1  LIG1       -0.0530
      4 C          -3.7651    1.3657   -2.5453 C.ar    1  LIG1       -0.0547
      5 C          -3.0098   -0.7132   -1.5732 C.ar    1  LIG1       -0.0547
      6 C          -9.7715   -5.2810    0.1281 C.ar    1  LIG1       -0.0402
      7 C          -2.7260    1.3090   -3.4740 C.ar    1  LIG1       -0.0431
      8 C          -1.9707   -0.7699   -2.5021 C.ar    1  LIG1       -0.0431
      9 C         -10.2626   -2.4903    2.3678 C.ar    1  LIG1       -0.0305
     10 C         -10.7010   -3.6973    1.7548 C.ar    1  LIG1       -0.0025
     11 C          -3.9070    0.3547   -1.5949 C.ar    1  LIG1       -0.0160
     12 C          -9.6797   -4.1173    0.8999 C.ar    1  LIG1        0.0376
     13 C          -1.8288    0.2413   -3.4525 C.ar    1  LIG1        0.0406
     14 C          -9.0070   -2.2061    1.8824 C.ar    1  LIG1        0.0524
     15 C          -6.2945   -0.2933   -1.1211 C.3     1  LIG1        0.0198
     16 C          -4.6336   -0.2437    0.7455 C.3     1  LIG1        0.0198
     17 C          -7.4381   -0.3212   -0.1107 C.3     1  LIG1       -0.0308
     18 C          -5.7702   -0.2177    1.7582 C.3     1  LIG1       -0.0308
     19 C          -5.0199    0.4141   -0.6017 C.3     1  LIG1        0.0996
     20 C          -8.0760   -1.0680    2.1800 C.3     1  LIG1        0.0050
     21 N          -8.6641   -3.1930    0.9975 N.ar    1  LIG1       -0.3135
     22 N          -6.9608   -0.9415    1.1788 N.4     1  LIG1        0.2504
     23 O          -5.2955    1.7953   -0.3932 O.3     1  LIG1       -0.3847
     24 CL         -0.5471    0.1714   -4.5984 Cl      1  LIG1       -0.0843
     25 H         -12.8786   -6.2465    1.1458 H       1  LIG1        0.0623
     26 H         -11.0462   -6.9466   -0.3513 H       1  LIG1        0.0623
     27 H         -12.6871   -4.1787    2.4997 H       1  LIG1        0.0629
     28 H          -4.4601    2.2010   -2.5685 H       1  LIG1        0.0627
     29 H          -3.1135   -1.5051   -0.8361 H       1  LIG1        0.0627
     30 H          -8.9658   -5.5895   -0.5294 H       1  LIG1        0.0642
     31 H          -2.6282    2.1039   -4.2090 H       1  LIG1        0.0638
     32 H          -1.2791   -1.6078   -2.4731 H       1  LIG1        0.0638
     33 H         -10.8093   -1.8947    3.0865 H       1  LIG1        0.0648
     34 H          -6.0431   -1.3239   -1.4077 H       1  LIG1        0.0354
     35 H          -6.6382    0.1878   -2.0461 H       1  LIG1        0.0354
     36 H          -3.7565    0.2634    1.1682 H       1  LIG1        0.0354
     37 H          -4.3154   -1.2806    0.5705 H       1  LIG1        0.0354
     38 H          -7.8092    0.6836    0.1189 H       1  LIG1        0.0816
     39 H          -8.2641   -0.9360   -0.4840 H       1  LIG1        0.0816
     40 H          -5.4789   -0.7491    2.6704 H       1  LIG1        0.0816
     41 H          -6.0853    0.7991    2.0164 H       1  LIG1        0.0816
     42 H          -8.6083   -0.1108    2.1804 H       1  LIG1        0.0882
     43 H          -7.6052   -1.1884    3.1617 H       1  LIG1        0.0882
     44 H          -7.7922   -3.2400    0.4881 H       1  LIG1        0.1527
     45 H          -6.6575   -1.9007    0.9605 H       1  LIG1        0.2007
     46 H          -6.0187    1.8397    0.2520 H       1  LIG1        0.2113
@<TRIPOS>BOND
     1     1     2   ar
     2     1     3   ar
     3     2     6   ar
     4     3    10   ar
     5     4     7   ar
     6     4    11   ar
     7     5     8   ar
     8     5    11   ar
     9     6    12   ar
    10     7    13   ar
    11     8    13   ar
    12     9    10   ar
    13     9    14   ar
    14    10    12   ar
    15    11    19    1
    16    12    21   ar
    17    13    24    1
    18    14    20    1
    19    14    21   ar
    20    15    17    1
    21    15    19    1
    22    16    18    1
    23    16    19    1
    24    17    22    1
    25    18    22    1
    26    19    23    1
    27    20    22    1
    28     1    25    1
    29     2    26    1
    30     3    27    1
    31     4    28    1
    32     5    29    1
    33     6    30    1
    34     7    31    1
    35     8    32    1
    36     9    33    1
    37    15    34    1
    38    15    35    1
    39    16    36    1
    40    16    37    1
    41    17    38    1
    42    17    39    1
    43    18    40    1
    44    18    41    1
    45    20    42    1
    46    20    43    1
    47    21    44    1
    48    22    45    1
    49    23    46    1
