@<TRIPOS>MOLECULE
ChEBML311658
 53 55 0 0 0
SMALL
USER_CHARGES

@<TRIPOS>ATOM
      1 C         -12.3617   -3.6970    1.8373 C.ar    1  LIG1       -0.0566
      2 C         -11.6478   -5.7756    0.8338 C.ar    1  LIG1       -0.0566
      3 C         -11.0635   -3.1987    1.7287 C.ar    1  LIG1       -0.0404
      4 C         -10.3495   -5.2772    0.7252 C.ar    1  LIG1       -0.0404
      5 C          -1.9087   -0.5654   -2.9870 C.ar    1  LIG1       -0.0355
      6 C          -2.8801   -1.1575   -2.1993 C.ar    1  LIG1       -0.0179
      7 C         -12.6538   -4.9855    1.3899 C.ar    1  LIG1       -0.0425
      8 C         -10.0574   -3.9887    1.1727 C.ar    1  LIG1        0.0340
      9 C          -2.0125    0.7890   -3.2318 C.ar    1  LIG1        0.0601
     10 C          -3.8908   -0.3558   -1.7080 C.ar    1  LIG1        0.1429
     11 C          -8.5209   -2.1210    0.9700 C.2     1  LIG1        0.3050
     12 C          -5.5105   -0.1465    0.1098 C.3     1  LIG1        0.0289
     13 C          -5.5689   -2.1054   -1.4637 C.3     1  LIG1        0.0289
     14 C          -7.0224   -0.3587    0.0816 C.3     1  LIG1        0.0315
     15 C          -6.4637   -2.7334   -0.3942 C.3     1  LIG1        0.0315
     16 C          -0.9914    1.4757   -4.0725 C.3     1  LIG1       -0.0204
     17 C         -15.0546   -4.6370    0.7108 C.3     1  LIG1       -0.0561
     18 C         -14.5133   -5.5503    2.9931 C.3     1  LIG1       -0.0561
     19 C         -14.2491   -6.9747    0.9725 C.3     1  LIG1       -0.0561
     20 C         -14.0419   -5.5182    1.5061 C.3     1  LIG1       -0.0132
     21 N          -3.0127    1.5493   -2.7381 N.ar    1  LIG1       -0.1540
     22 N          -3.9672    0.9674   -1.9635 N.ar    1  LIG1       -0.1350
     23 N          -4.8547   -0.9439   -0.9302 N.pl3   1  LIG1       -0.3112
     24 N          -7.3718   -1.7693    0.2370 N.am    1  LIG1       -0.2824
     25 N          -8.7547   -3.4888    1.0633 N.am    1  LIG1       -0.2691
     26 O          -9.2598   -1.2826    1.4965 O.2     1  LIG1       -0.2537
     27 H         -13.1389   -3.0753    2.2739 H       1  LIG1        0.0626
     28 H         -11.8664   -6.7808    0.4834 H       1  LIG1        0.0626
     29 H         -10.8472   -2.1929    2.0803 H       1  LIG1        0.0642
     30 H          -9.5728   -5.9019    0.2912 H       1  LIG1        0.0642
     31 H          -1.0966   -1.1564   -3.3966 H       1  LIG1        0.0643
     32 H          -2.8359   -2.2203   -1.9838 H       1  LIG1        0.0661
     33 H          -5.2974    0.9218   -0.0197 H       1  LIG1        0.0485
     34 H          -5.1062   -0.4458    1.0843 H       1  LIG1        0.0485
     35 H          -4.8553   -2.8569   -1.8223 H       1  LIG1        0.0485
     36 H          -6.1810   -1.7929   -2.3197 H       1  LIG1        0.0485
     37 H          -7.4965    0.2367    0.8688 H       1  LIG1        0.0486
     38 H          -7.4415   -0.0286   -0.8767 H       1  LIG1        0.0486
     39 H          -7.0470   -3.5434   -0.8442 H       1  LIG1        0.0486
     40 H          -5.8514   -3.1631    0.4079 H       1  LIG1        0.0486
     41 H          -1.2893    1.4576   -5.1284 H       1  LIG1        0.0296
     42 H          -0.8604    2.5224   -3.7669 H       1  LIG1        0.0296
     43 H          -0.0087    0.9938   -3.9808 H       1  LIG1        0.0296
     44 H         -16.0840   -5.0074    0.7799 H       1  LIG1        0.0239
     45 H         -15.0610   -3.6042    1.0761 H       1  LIG1        0.0239
     46 H         -14.7805   -4.6088   -0.3505 H       1  LIG1        0.0239
     47 H         -15.5328   -5.9412    3.0826 H       1  LIG1        0.0239
     48 H         -13.8738   -6.1760    3.6269 H       1  LIG1        0.0239
     49 H         -14.5110   -4.5376    3.4135 H       1  LIG1        0.0239
     50 H         -15.2842   -7.3208    1.0796 H       1  LIG1        0.0239
     51 H         -13.9969   -7.0394   -0.0924 H       1  LIG1        0.0239
     52 H         -13.6148   -7.6835    1.5176 H       1  LIG1        0.0239
     53 H          -7.9994   -4.1627    1.1121 H       1  LIG1        0.1573
@<TRIPOS>BOND
     1     1     3   ar
     2     1     7   ar
     3     2     4   ar
     4     2     7   ar
     5     3     8   ar
     6     4     8   ar
     7     5     6   ar
     8     5     9   ar
     9     6    10   ar
    10     7    20    1
    11     8    25    1
    12     9    16    1
    13     9    21   ar
    14    10    22   ar
    15    10    23    1
    16    11    24   am
    17    11    25   am
    18    11    26    2
    19    12    14    1
    20    12    23    1
    21    13    15    1
    22    13    23    1
    23    14    24    1
    24    15    24    1
    25    17    20    1
    26    18    20    1
    27    19    20    1
    28    21    22   ar
    29     1    27    1
    30     2    28    1
    31     3    29    1
    32     4    30    1
    33     5    31    1
    34     6    32    1
    35    12    33    1
    36    12    34    1
    37    13    35    1
    38    13    36    1
    39    14    37    1
    40    14    38    1
    41    15    39    1
    42    15    40    1
    43    16    41    1
    44    16    42    1
    45    16    43    1
    46    17    44    1
    47    17    45    1
    48    17    46    1
    49    18    47    1
    50    18    48    1
    51    18    49    1
    52    19    50    1
    53    19    51    1
    54    19    52    1
    55    25    53    1
