@<TRIPOS>MOLECULE
ChEBML999083
 36 38 0 0 0
SMALL
USER_CHARGES

@<TRIPOS>ATOM
      1 C         -11.7401   -5.1997    0.5457 C.ar    1  LIG1       -0.0616
      2 C         -12.3971   -4.5317    1.5747 C.ar    1  LIG1       -0.0616
      3 C          -1.5717    0.1588   -3.2324 C.ar    1  LIG1       -0.0544
      4 C         -10.4619   -4.7982    0.1564 C.ar    1  LIG1       -0.0543
      5 C         -11.7786   -3.4597    2.2185 C.ar    1  LIG1       -0.0543
      6 C          -2.6662   -0.5610   -2.6720 C.ar    1  LIG1       -0.0458
      7 C          -8.5379   -3.3035    0.4146 C.ar    1  LIG1       -0.0391
      8 C          -9.8546   -1.9648    2.4767 C.ar    1  LIG1       -0.0234
      9 C          -1.9195    1.4478   -3.5717 C.ar    1  LIG1       -0.0241
     10 C          -9.8241   -3.7211    0.7934 C.ar    1  LIG1       -0.0174
     11 C         -10.4923   -3.0419    1.8398 C.ar    1  LIG1       -0.0157
     12 C          -7.9193   -2.2314    1.0584 C.ar    1  LIG1        0.0694
     13 C          -8.5764   -1.5634    2.0875 C.ar    1  LIG1        0.0845
     14 C          -3.8090    0.2055   -2.6040 C.ar    1  LIG1        0.0345
     15 C          -6.5847   -1.8273    0.6380 C.2     1  LIG1        0.2651
     16 C          -5.1551   -0.1686   -2.0882 C.2     1  LIG1        0.0694
     17 C          -6.3601    0.5113   -2.7083 C.3     1  LIG1       -0.0195
     18 N          -5.2163   -1.0550   -1.1386 N.2     1  LIG1       -0.1853
     19 N          -6.4371   -1.4239   -0.6901 N.am    1  LIG1       -0.2028
     20 O          -5.6325   -1.8628    1.4365 O.2     1  LIG1       -0.2699
     21 O          -7.9880   -0.5135    2.7276 O.3     1  LIG1       -0.3600
     22 S          -3.5598    1.7858   -3.2146 S.2     1  LIG1       -0.0961
     23 H         -12.2221   -6.0346    0.0452 H       1  LIG1        0.0623
     24 H         -13.3924   -4.8449    1.8768 H       1  LIG1        0.0623
     25 H          -0.5800   -0.2486   -3.3802 H       1  LIG1        0.0628
     26 H          -9.9668   -5.3352   -0.6500 H       1  LIG1        0.0629
     27 H         -12.3109   -2.9526    3.0204 H       1  LIG1        0.0629
     28 H          -2.6122   -1.5892   -2.3368 H       1  LIG1        0.0635
     29 H          -8.0148   -3.8190   -0.3893 H       1  LIG1        0.0638
     30 H         -10.3553   -1.4320    3.2833 H       1  LIG1        0.0657
     31 H          -1.2888    2.2066   -4.0130 H       1  LIG1        0.0700
     32 H          -6.7478   -0.0407   -3.5681 H       1  LIG1        0.0297
     33 H          -7.1514    0.6042   -1.9591 H       1  LIG1        0.0297
     34 H          -6.0791    1.5049   -3.0706 H       1  LIG1        0.0297
     35 H          -7.2105   -1.4354   -1.3435 H       1  LIG1        0.1789
     36 H          -7.1079   -0.3462    2.3561 H       1  LIG1        0.2182
@<TRIPOS>BOND
     1     1     2   ar
     2     1     4   ar
     3     2     5   ar
     4     3     6   ar
     5     3     9   ar
     6     4    10   ar
     7     5    11   ar
     8     6    14   ar
     9     7    10   ar
    10     7    12   ar
    11     8    11   ar
    12     8    13   ar
    13     9    22   ar
    14    10    11   ar
    15    12    13   ar
    16    12    15    1
    17    13    21    1
    18    14    16    1
    19    14    22   ar
    20    15    19   am
    21    15    20    2
    22    16    17    1
    23    16    18    2
    24    18    19    1
    25     1    23    1
    26     2    24    1
    27     3    25    1
    28     4    26    1
    29     5    27    1
    30     6    28    1
    31     7    29    1
    32     8    30    1
    33     9    31    1
    34    17    32    1
    35    17    33    1
    36    17    34    1
    37    19    35    1
    38    21    36    1
