@<TRIPOS>MOLECULE
ChEBML63002
 52 55 0 0 0
SMALL
USER_CHARGES

@<TRIPOS>ATOM
      1 C          -3.2838    0.4921   -3.7881 C.ar    1  LIG1       -0.0622
      2 C          -2.5346   -0.5886   -3.3229 C.ar    1  LIG1       -0.0620
      3 C          -3.8089    1.4169   -2.8855 C.ar    1  LIG1       -0.0620
      4 C          -2.3106   -0.7446   -1.9550 C.ar    1  LIG1       -0.0590
      5 C          -3.5849    1.2609   -1.5176 C.ar    1  LIG1       -0.0590
      6 C         -10.7608   -5.2513    0.9377 C.ar    1  LIG1       -0.0376
      7 C         -12.1404   -5.2845    1.1592 C.ar    1  LIG1       -0.0299
      8 C         -12.1346   -2.9745    1.9071 C.ar    1  LIG1       -0.0223
      9 C         -10.7426   -2.9154    1.6933 C.ar    1  LIG1        0.0035
     10 C          -9.7527   -1.9070    1.8549 C.ar    1  LIG1       -0.0111
     11 C          -2.8358    0.1801   -1.0523 C.ar    1  LIG1       -0.0480
     12 C         -10.0876   -4.0552    1.2119 C.ar    1  LIG1        0.0380
     13 C         -12.8187   -4.1649    1.6360 C.ar    1  LIG1        0.0753
     14 C          -8.5465   -2.4492    1.4690 C.ar    1  LIG1        0.0558
     15 C          -9.8642   -0.4948    2.3170 C.3     1  LIG1        0.0140
     16 C          -7.2419   -1.7510    1.4931 C.3     1  LIG1        0.0053
     17 C          -8.4989    0.0636    2.7542 C.3     1  LIG1       -0.0297
     18 C         -14.8073   -5.4662    1.5472 C.3     1  LIG1        0.0422
     19 C          -2.5943    0.0120    0.4266 C.3     1  LIG1       -0.0277
     20 C          -3.7206    0.5678    1.3054 C.3     1  LIG1       -0.0443
     21 C          -5.0561   -0.1521    1.0954 C.3     1  LIG1       -0.0133
     22 C          -6.1455    0.4587    1.9654 C.3     1  LIG1       -0.0339
     23 N          -8.7500   -3.7422    1.0864 N.ar    1  LIG1       -0.3132
     24 N          -7.4439   -0.2454    1.6939 N.4     1  LIG1        0.2505
     25 O         -14.1646   -4.2277    1.8411 O.3     1  LIG1       -0.3493
     26 H          -3.4569    0.6141   -4.8534 H       1  LIG1        0.0622
     27 H          -2.1247   -1.3082   -4.0256 H       1  LIG1        0.0623
     28 H          -4.3912    2.2589   -3.2475 H       1  LIG1        0.0623
     29 H          -1.7259   -1.5898   -1.6015 H       1  LIG1        0.0625
     30 H          -3.9981    1.9862   -0.8218 H       1  LIG1        0.0625
     31 H         -10.2346   -6.1240    0.5657 H       1  LIG1        0.0643
     32 H         -12.6862   -6.2024    0.9535 H       1  LIG1        0.0651
     33 H         -12.6717   -2.1061    2.2788 H       1  LIG1        0.0657
     34 H         -10.2618    0.1144    1.4960 H       1  LIG1        0.0371
     35 H         -10.5695   -0.4197    3.1519 H       1  LIG1        0.0371
     36 H          -6.6293   -2.1078    2.3281 H       1  LIG1        0.0882
     37 H          -6.6970   -1.8700    0.5513 H       1  LIG1        0.0882
     38 H          -8.5467    1.1518    2.8663 H       1  LIG1        0.0818
     39 H          -8.1527   -0.3884    3.6908 H       1  LIG1        0.0818
     40 H         -15.8768   -5.3807    1.7542 H       1  LIG1        0.0535
     41 H         -14.3691   -6.2592    2.1586 H       1  LIG1        0.0535
     42 H         -14.6607   -5.7007    0.4902 H       1  LIG1        0.0535
     43 H          -2.4273   -1.0461    0.6648 H       1  LIG1        0.0316
     44 H          -1.6568    0.5240    0.6797 H       1  LIG1        0.0316
     45 H          -3.8493    1.6423    1.1261 H       1  LIG1        0.0272
     46 H          -3.4200    0.4571    2.3549 H       1  LIG1        0.0272
     47 H          -4.9415   -1.2162    1.3365 H       1  LIG1        0.0320
     48 H          -5.3546   -0.0903    0.0422 H       1  LIG1        0.0320
     49 H          -6.3050    1.5169    1.7394 H       1  LIG1        0.0814
     50 H          -5.9356    0.3366    3.0320 H       1  LIG1        0.0814
     51 H          -8.0341   -4.3780    0.7619 H       1  LIG1        0.1527
     52 H          -7.8012    0.1298    0.8042 H       1  LIG1        0.2007
@<TRIPOS>BOND
     1     1     2   ar
     2     1     3   ar
     3     2     4   ar
     4     3     5   ar
     5     4    11   ar
     6     5    11   ar
     7     6     7   ar
     8     6    12   ar
     9     7    13   ar
    10     8     9   ar
    11     8    13   ar
    12     9    10   ar
    13     9    12   ar
    14    10    14   ar
    15    10    15    1
    16    11    19    1
    17    12    23   ar
    18    13    25    1
    19    14    16    1
    20    14    23   ar
    21    15    17    1
    22    16    24    1
    23    17    24    1
    24    18    25    1
    25    19    20    1
    26    20    21    1
    27    21    22    1
    28    22    24    1
    29     1    26    1
    30     2    27    1
    31     3    28    1
    32     4    29    1
    33     5    30    1
    34     6    31    1
    35     7    32    1
    36     8    33    1
    37    15    34    1
    38    15    35    1
    39    16    36    1
    40    16    37    1
    41    17    38    1
    42    17    39    1
    43    18    40    1
    44    18    41    1
    45    18    42    1
    46    19    43    1
    47    19    44    1
    48    20    45    1
    49    20    46    1
    50    21    47    1
    51    21    48    1
    52    22    49    1
    53    22    50    1
    54    23    51    1
    55    24    52    1
