@<TRIPOS>MOLECULE
ChEBML348220
 39 42 0 0 0
SMALL
USER_CHARGES

@<TRIPOS>ATOM
      1 C         -11.4503   -5.6456    0.7064 C.ar    1  LIG1       -0.0601
      2 C         -12.4109   -4.8117    1.2754 C.ar    1  LIG1       -0.0586
      3 C         -10.1223   -5.2300    0.5742 C.ar    1  LIG1       -0.0402
      4 C          -3.5889   -2.4641   -0.8507 C.ar    1  LIG1       -0.0376
      5 C          -2.7571   -1.8300   -1.7779 C.ar    1  LIG1       -0.0299
      6 C          -4.0706    0.2084   -1.6492 C.ar    1  LIG1       -0.0226
      7 C          -6.0786    0.0091    0.0039 C.ar    1  LIG1       -0.0275
      8 C         -10.0546   -1.8918    1.9515 C.ar    1  LIG1       -0.0273
      9 C          -4.9230   -0.4100   -0.7131 C.ar    1  LIG1        0.0003
     10 C         -10.7375   -3.0920    1.6079 C.ar    1  LIG1        0.0007
     11 C         -12.0702   -3.5327    1.7306 C.ar    1  LIG1       -0.0419
     12 C          -4.6630   -1.7293   -0.3361 C.ar    1  LIG1        0.0379
     13 C          -9.7962   -3.9491    1.0337 C.ar    1  LIG1        0.0380
     14 C          -2.9923   -0.5144   -2.1725 C.ar    1  LIG1        0.0753
     15 C          -6.4903   -1.0443    0.7872 C.ar    1  LIG1        0.0811
     16 C          -8.7365   -2.0407    1.5864 C.ar    1  LIG1        0.0811
     17 C          -7.6656   -1.1059    1.7301 C.2     1  LIG1        0.2206
     18 C         -13.1439   -2.6825    2.3321 C.3     1  LIG1       -0.0391
     19 C          -2.4566    1.4240   -3.4418 C.3     1  LIG1        0.0422
     20 N          -5.6302   -2.0882    0.5755 N.ar    1  LIG1       -0.3112
     21 N          -8.5904   -3.2847    1.0336 N.ar    1  LIG1       -0.3112
     22 O          -7.6497   -0.2737    2.6668 O.2     1  LIG1       -0.2856
     23 O          -2.1634    0.0767   -3.0786 O.3     1  LIG1       -0.3493
     24 H         -11.7373   -6.6352    0.3599 H       1  LIG1        0.0623
     25 H         -13.4351   -5.1669    1.3624 H       1  LIG1        0.0625
     26 H          -9.3750   -5.8798    0.1312 H       1  LIG1        0.0642
     27 H          -3.4049   -3.4882   -0.5439 H       1  LIG1        0.0643
     28 H          -1.9150   -2.3789   -2.1932 H       1  LIG1        0.0651
     29 H          -4.2469    1.2342   -1.9615 H       1  LIG1        0.0657
     30 H          -6.5549    0.9791   -0.0509 H       1  LIG1        0.0651
     31 H         -10.4840   -1.0140    2.4162 H       1  LIG1        0.0651
     32 H         -13.2014   -2.8552    3.4122 H       1  LIG1        0.0280
     33 H         -12.9487   -1.6184    2.1560 H       1  LIG1        0.0280
     34 H         -14.1202   -2.9079    1.8874 H       1  LIG1        0.0280
     35 H          -1.7206    1.7744   -4.1696 H       1  LIG1        0.0535
     36 H          -2.4327    2.0561   -2.5505 H       1  LIG1        0.0535
     37 H          -3.4534    1.4632   -3.8873 H       1  LIG1        0.0535
     38 H          -5.6928   -2.9929    1.0222 H       1  LIG1        0.1529
     39 H          -7.7241   -3.6642    0.6766 H       1  LIG1        0.1529
@<TRIPOS>BOND
     1     1     2   ar
     2     1     3   ar
     3     2    11   ar
     4     3    13   ar
     5     4     5   ar
     6     4    12   ar
     7     5    14   ar
     8     6     9   ar
     9     6    14   ar
    10     7     9   ar
    11     7    15   ar
    12     8    10   ar
    13     8    16   ar
    14     9    12   ar
    15    10    11   ar
    16    10    13   ar
    17    11    18    1
    18    12    20   ar
    19    13    21   ar
    20    14    23    1
    21    15    17    1
    22    15    20   ar
    23    16    17    1
    24    16    21   ar
    25    17    22    2
    26    19    23    1
    27     1    24    1
    28     2    25    1
    29     3    26    1
    30     4    27    1
    31     5    28    1
    32     6    29    1
    33     7    30    1
    34     8    31    1
    35    18    32    1
    36    18    33    1
    37    18    34    1
    38    19    35    1
    39    19    36    1
    40    19    37    1
    41    20    38    1
    42    21    39    1
