@<TRIPOS>MOLECULE
ChEBML622679
 43 46 0 0 0
SMALL
USER_CHARGES

@<TRIPOS>ATOM
      1 C          -1.9743    0.8537   -3.2340 C.ar    1  LIG1       -0.0432
      2 C          -6.5217   -2.6216   -0.3943 C.ar    1  LIG1       -0.0501
      3 C          -5.5333   -2.0797   -1.2117 C.ar    1  LIG1       -0.0520
      4 C          -1.7579   -0.4563   -2.8215 C.ar    1  LIG1       -0.0463
      5 C         -11.7706   -5.4128    0.6603 C.ar    1  LIG1       -0.0482
      6 C         -12.2094   -3.0877    1.1488 C.ar    1  LIG1       -0.0482
      7 C         -10.4046   -5.1920    0.8364 C.ar    1  LIG1       -0.0402
      8 C         -10.8435   -2.8669    1.3249 C.ar    1  LIG1       -0.0402
      9 C          -5.1572   -0.3490    0.4266 C.ar    1  LIG1       -0.0244
     10 C          -3.1336    1.4838   -2.8112 C.ar    1  LIG1        0.0276
     11 C          -8.0637   -1.9089    2.8741 C.ar    1  LIG1        0.0716
     12 C          -6.8298   -2.0246    0.8400 C.ar    1  LIG1        0.0251
     13 C          -4.8502   -0.9416   -0.8002 C.ar    1  LIG1        0.0030
     14 C         -12.6730   -4.3606    0.8165 C.ar    1  LIG1        0.0556
     15 C          -2.6943   -1.0874   -2.0102 C.ar    1  LIG1        0.0818
     16 C          -6.1415   -0.8736    1.2602 C.ar    1  LIG1        0.0955
     17 C          -9.9411   -3.9191    1.1687 C.ar    1  LIG1        0.0303
     18 C          -7.8151   -2.5466    1.6783 C.ar    1  LIG1        0.0603
     19 C          -3.8213   -0.3704   -1.6420 C.ar    1  LIG1        0.0825
     20 C         -14.1336   -4.5957    0.6280 C.3     1  LIG1        0.4160
     21 C          -2.4602   -2.4927   -1.5709 C.3     1  LIG1        0.4181
     22 N          -4.0661    0.9034   -2.0229 N.ar    1  LIG1       -0.2556
     23 N          -7.3942   -0.8088    3.2580 N.ar    1  LIG1       -0.1565
     24 N          -6.4271   -0.2936    2.4384 N.ar    1  LIG1       -0.1503
     25 N          -8.5617   -3.6960    1.3485 N.pl3   1  LIG1       -0.3130
     26 F         -14.4434   -5.8865    0.3055 F       1  LIG1       -0.1661
     27 F         -14.8799   -4.3171    1.7376 F       1  LIG1       -0.1661
     28 F         -14.6639   -3.8316   -0.3710 F       1  LIG1       -0.1661
     29 F          -1.2930   -3.0263   -2.0395 F       1  LIG1       -0.1660
     30 F          -2.3980   -2.6386   -0.2139 F       1  LIG1       -0.1660
     31 F          -3.4436   -3.3438   -1.9854 F       1  LIG1       -0.1660
     32 H          -1.2573    1.3648   -3.8665 H       1  LIG1        0.0639
     33 H          -7.0401   -3.5124   -0.7410 H       1  LIG1        0.0630
     34 H          -5.3092   -2.5558   -2.1629 H       1  LIG1        0.0630
     35 H          -0.8569   -0.9756   -3.1362 H       1  LIG1        0.0630
     36 H         -12.1229   -6.4074    0.4005 H       1  LIG1        0.0629
     37 H         -12.9048   -2.2616    1.2708 H       1  LIG1        0.0629
     38 H          -9.7099   -6.0184    0.7110 H       1  LIG1        0.0642
     39 H         -10.4933   -1.8708    1.5830 H       1  LIG1        0.0642
     40 H          -4.6173    0.5429    0.7436 H       1  LIG1        0.0653
     41 H          -3.3500    2.5049   -3.1070 H       1  LIG1        0.0840
     42 H          -8.8143   -2.2618    3.5726 H       1  LIG1        0.0880
     43 H          -7.9925   -4.5267    1.2133 H       1  LIG1        0.1528
@<TRIPOS>BOND
     1     1     4   ar
     2     1    10   ar
     3     2     3   ar
     4     2    12   ar
     5     3    13   ar
     6     4    15   ar
     7     5     7   ar
     8     5    14   ar
     9     6     8   ar
    10     6    14   ar
    11     7    17   ar
    12     8    17   ar
    13     9    13   ar
    14     9    16   ar
    15    10    22   ar
    16    11    18   ar
    17    11    23   ar
    18    12    16   ar
    19    12    18   ar
    20    13    19    1
    21    14    20    1
    22    15    19   ar
    23    15    21    1
    24    16    24   ar
    25    17    25    1
    26    18    25    1
    27    19    22   ar
    28    20    26    1
    29    20    27    1
    30    20    28    1
    31    21    29    1
    32    21    30    1
    33    21    31    1
    34    23    24   ar
    35     1    32    1
    36     2    33    1
    37     3    34    1
    38     4    35    1
    39     5    36    1
    40     6    37    1
    41     7    38    1
    42     8    39    1
    43     9    40    1
    44    10    41    1
    45    11    42    1
    46    25    43    1
