@<TRIPOS>MOLECULE
ChEBML678352
 42 45 0 0 0
SMALL
USER_CHARGES

@<TRIPOS>ATOM
      1 C          -2.0348    0.8278   -3.2726 C.ar    1  LIG1       -0.0432
      2 C          -6.5681   -2.6404   -0.4052 C.ar    1  LIG1       -0.0486
      3 C          -5.5912   -2.0953   -1.2326 C.ar    1  LIG1       -0.0519
      4 C          -1.8299   -0.4946   -2.8948 C.ar    1  LIG1       -0.0463
      5 C         -10.8614   -3.1730    1.9068 C.ar    1  LIG1       -0.0370
      6 C         -12.2195   -3.3974    1.7108 C.ar    1  LIG1       -0.0294
      7 C          -5.1485   -0.4062    0.4371 C.ar    1  LIG1       -0.0262
      8 C          -3.1733    1.4662   -2.8078 C.ar    1  LIG1        0.0276
      9 C         -10.4036   -4.8299    0.2631 C.ar    1  LIG1        0.0489
     10 C          -7.3228   -0.9419    3.2374 C.ar    1  LIG1        0.1179
     11 C          -6.8315   -2.0605    0.8480 C.ar    1  LIG1        0.0408
     12 C          -4.8807   -0.9771   -0.8106 C.ar    1  LIG1        0.0029
     13 C          -2.7568   -1.1292   -2.0754 C.ar    1  LIG1        0.0818
     14 C          -6.1207   -0.9309    1.2852 C.ar    1  LIG1        0.0762
     15 C          -9.9296   -3.8988    1.1731 C.ar    1  LIG1        0.0501
     16 C          -3.8630   -0.4031   -1.6641 C.ar    1  LIG1        0.0825
     17 C         -12.5911   -4.3509    0.7766 C.ar    1  LIG1        0.1440
     18 C          -7.7945   -2.5560    1.7224 C.ar    1  LIG1        0.1330
     19 C          -2.5352   -2.5475   -1.6733 C.3     1  LIG1        0.4181
     20 C         -14.0402   -4.6176    0.5404 C.3     1  LIG1        0.4329
     21 N          -4.0960    0.8826   -2.0105 N.ar    1  LIG1       -0.2556
     22 N         -11.7150   -5.0756    0.0453 N.ar    1  LIG1       -0.2498
     23 N          -6.3646   -0.3681    2.4817 N.ar    1  LIG1       -0.2361
     24 N          -8.0639   -2.0176    2.9267 N.ar    1  LIG1       -0.2207
     25 N          -8.5520   -3.6941    1.3494 N.pl3   1  LIG1       -0.2978
     26 F          -1.3884   -3.0886   -2.1819 F       1  LIG1       -0.1660
     27 F          -2.4431   -2.7252   -0.3219 F       1  LIG1       -0.1660
     28 F          -3.5419   -3.3736   -2.0829 F       1  LIG1       -0.1660
     29 F         -14.8693   -3.8530    1.3104 F       1  LIG1       -0.1645
     30 F         -14.4350   -4.3868   -0.7463 F       1  LIG1       -0.1645
     31 F         -14.3848   -5.9114    0.8036 F       1  LIG1       -0.1645
     32 H          -1.3248    1.3417   -3.9106 H       1  LIG1        0.0639
     33 H          -7.1102   -3.5143   -0.7572 H       1  LIG1        0.0631
     34 H          -5.3969   -2.5526   -2.1993 H       1  LIG1        0.0630
     35 H          -0.9452   -1.0207   -3.2427 H       1  LIG1        0.0630
     36 H         -10.5399   -2.4311    2.6329 H       1  LIG1        0.0644
     37 H         -12.9567   -2.8380    2.2767 H       1  LIG1        0.0646
     38 H          -4.5857    0.4704    0.7578 H       1  LIG1        0.0653
     39 H          -3.3801    2.4970   -3.0755 H       1  LIG1        0.0840
     40 H          -9.7248   -5.4270   -0.3385 H       1  LIG1        0.0860
     41 H          -7.5139   -0.4838    4.2003 H       1  LIG1        0.1063
     42 H          -7.9831   -4.5146    1.1777 H       1  LIG1        0.1543
@<TRIPOS>BOND
     1     1     4   ar
     2     1     8   ar
     3     2     3   ar
     4     2    11   ar
     5     3    12   ar
     6     4    13   ar
     7     5     6   ar
     8     5    15   ar
     9     6    17   ar
    10     7    12   ar
    11     7    14   ar
    12     8    21   ar
    13     9    15   ar
    14     9    22   ar
    15    10    23   ar
    16    10    24   ar
    17    11    14   ar
    18    11    18   ar
    19    12    16    1
    20    13    16   ar
    21    13    19    1
    22    14    23   ar
    23    15    25    1
    24    16    21   ar
    25    17    20    1
    26    17    22   ar
    27    18    24   ar
    28    18    25    1
    29    19    26    1
    30    19    27    1
    31    19    28    1
    32    20    29    1
    33    20    30    1
    34    20    31    1
    35     1    32    1
    36     2    33    1
    37     3    34    1
    38     4    35    1
    39     5    36    1
    40     6    37    1
    41     7    38    1
    42     8    39    1
    43     9    40    1
    44    10    41    1
    45    25    42    1
