@<TRIPOS>MOLECULE
ChEBML575973
 43 46 0 0 0
SMALL
USER_CHARGES

@<TRIPOS>ATOM
      1 C          -2.8987    1.2338   -3.5751 C.ar    1  LIG1       -0.0613
      2 C         -12.3662   -5.0755    1.4832 C.ar    1  LIG1       -0.0600
      3 C         -11.4564   -5.7963    0.7062 C.ar    1  LIG1       -0.0602
      4 C          -1.6171    0.6841   -3.6053 C.ar    1  LIG1       -0.0596
      5 C          -3.8488    0.7394   -2.6814 C.ar    1  LIG1       -0.0470
      6 C         -12.0141   -3.8441    2.0501 C.ar    1  LIG1       -0.0344
      7 C         -10.1648   -5.3151    0.4674 C.ar    1  LIG1       -0.0385
      8 C          -5.9111    0.7409    2.2003 C.ar    1  LIG1       -0.0392
      9 C          -1.2855   -0.3600   -2.7419 C.ar    1  LIG1       -0.0310
     10 C          -6.8465    0.5583    3.2186 C.ar    1  LIG1       -0.0409
     11 C          -6.9676   -1.0113    0.9155 C.ar    1  LIG1       -0.0284
     12 C          -7.9031   -1.1939    1.9340 C.ar    1  LIG1        0.0354
     13 C          -3.5172   -0.3048   -1.8180 C.ar    1  LIG1        0.0676
     14 C         -10.7205   -3.3457    1.8205 C.ar    1  LIG1        0.0866
     15 C          -9.8361   -4.0869    1.0419 C.ar    1  LIG1        0.0576
     16 C          -5.9717   -0.0439    1.0486 C.ar    1  LIG1        0.0336
     17 C          -2.2356   -0.8545   -1.8482 C.ar    1  LIG1        0.0871
     18 C          -7.8426   -0.4090    3.0855 C.ar    1  LIG1        0.0514
     19 C          -8.9162   -2.2056    1.7556 C.ar    1  LIG1        0.1313
     20 C          -4.5356   -0.8118   -0.8824 C.2     1  LIG1        0.2499
     21 C          -1.3466   -1.5148    0.2564 C.3     1  LIG1        0.0423
     22 N         -10.1316   -2.1804    2.2549 N.ar    1  LIG1       -0.2308
     23 N          -8.6903   -3.3339    1.0173 N.ar    1  LIG1       -0.2973
     24 N          -5.0364    0.1393    0.0295 N.am    1  LIG1       -0.2812
     25 O          -4.8775   -1.9924   -0.8984 O.2     1  LIG1       -0.2714
     26 O          -1.8920   -1.8739   -1.0112 O.3     1  LIG1       -0.3485
     27 CL         -8.9756   -0.5914    4.3797 Cl      1  LIG1       -0.0835
     28 H          -3.1566    2.0469   -4.2476 H       1  LIG1        0.0623
     29 H         -13.3628   -5.4751    1.6509 H       1  LIG1        0.0623
     30 H         -11.7565   -6.7501    0.2794 H       1  LIG1        0.0623
     31 H          -0.8781    1.0692   -4.3017 H       1  LIG1        0.0623
     32 H          -4.8443    1.1759   -2.6664 H       1  LIG1        0.0632
     33 H         -12.7281   -3.2919    2.6527 H       1  LIG1        0.0646
     34 H          -9.4577   -5.8734   -0.1354 H       1  LIG1        0.0643
     35 H          -5.1398    1.4983    2.3145 H       1  LIG1        0.0643
     36 H          -0.2853   -0.7837   -2.7704 H       1  LIG1        0.0650
     37 H          -6.7851    1.1785    4.1094 H       1  LIG1        0.0639
     38 H          -7.0093   -1.6203    0.0140 H       1  LIG1        0.0650
     39 H          -1.1163   -2.4195    0.8243 H       1  LIG1        0.0535
     40 H          -2.0672   -0.9018    0.8036 H       1  LIG1        0.0535
     41 H          -0.4293   -0.9425    0.0994 H       1  LIG1        0.0535
     42 H          -7.8327   -3.5755    0.5379 H       1  LIG1        0.1544
     43 H          -4.6646    1.0909   -0.0692 H       1  LIG1        0.1560
@<TRIPOS>BOND
     1     1     4   ar
     2     1     5   ar
     3     2     3   ar
     4     2     6   ar
     5     3     7   ar
     6     4     9   ar
     7     5    13   ar
     8     6    14   ar
     9     7    15   ar
    10     8    10   ar
    11     8    16   ar
    12     9    17   ar
    13    10    18   ar
    14    11    12   ar
    15    11    16   ar
    16    12    18   ar
    17    12    19    1
    18    13    17   ar
    19    13    20    1
    20    14    15   ar
    21    14    22   ar
    22    15    23   ar
    23    16    24    1
    24    17    26    1
    25    18    27    1
    26    19    22   ar
    27    19    23   ar
    28    20    24   am
    29    20    25    2
    30    21    26    1
    31     1    28    1
    32     2    29    1
    33     3    30    1
    34     4    31    1
    35     5    32    1
    36     6    33    1
    37     7    34    1
    38     8    35    1
    39     9    36    1
    40    10    37    1
    41    11    38    1
    42    21    39    1
    43    21    40    1
    44    21    41    1
    45    23    42    1
    46    24    43    1
