@<TRIPOS>MOLECULE
ChEBML626383
 42 44 0 0 0
SMALL
USER_CHARGES

@<TRIPOS>ATOM
      1 C         -11.2057   -4.1007    1.8767 C.ar    1  LIG1       -0.0621
      2 C         -10.5918   -3.2755    2.8189 C.ar    1  LIG1       -0.0604
      3 C         -10.8217   -4.0362    0.5373 C.ar    1  LIG1       -0.0604
      4 C          -2.2419    0.8023   -3.7591 C.ar    1  LIG1       -0.0602
      5 C          -3.2362    1.5433   -3.1205 C.ar    1  LIG1       -0.0595
      6 C          -9.5939   -2.3856    2.4216 C.ar    1  LIG1       -0.0404
      7 C          -9.8237   -3.1464    0.1400 C.ar    1  LIG1       -0.0404
      8 C          -1.8498   -0.4316   -3.2401 C.ar    1  LIG1       -0.0380
      9 C          -3.8384    1.0505   -1.9627 C.ar    1  LIG1       -0.0298
     10 C          -9.2097   -2.3210    1.0822 C.ar    1  LIG1        0.0378
     11 C          -2.4518   -0.9244   -2.0823 C.ar    1  LIG1        0.0632
     12 C          -3.4461   -0.1834   -1.4436 C.ar    1  LIG1        0.0965
     13 C          -7.5335   -0.5649    1.5327 C.2     1  LIG1        0.3581
     14 C          -1.0732   -3.0277   -2.0844 C.2     1  LIG1        0.2129
     15 C          -7.7343   -1.2760   -0.6589 C.3     1  LIG1        0.0510
     16 C          -6.4310   -0.5289   -0.4736 C.3     1  LIG1        0.1089
     17 C          -0.9343   -4.2698   -1.2404 C.3     1  LIG1        0.0130
     18 C          -5.2136   -1.4427   -0.4709 C.3     1  LIG1        0.0819
     19 N          -8.2162   -1.4352    0.6870 N.am    1  LIG1       -0.2447
     20 N          -2.0479   -2.1613   -1.5743 N.am    1  LIG1       -0.2834
     21 O          -7.7472   -0.3577    2.7197 O.2     1  LIG1       -0.2418
     22 O          -0.3782   -2.8653   -3.0821 O.2     1  LIG1       -0.2776
     23 O          -6.5541    0.0861    0.8165 O.3     1  LIG1       -0.2925
     24 O          -4.0512   -0.6498   -0.3034 O.3     1  LIG1       -0.3413
     25 H         -11.9824   -4.7943    2.1859 H       1  LIG1        0.0622
     26 H         -10.8900   -3.3260    3.8619 H       1  LIG1        0.0623
     27 H         -11.2992   -4.6798   -0.1958 H       1  LIG1        0.0623
     28 H          -1.7738    1.1861   -4.6607 H       1  LIG1        0.0623
     29 H          -3.5422    2.5037   -3.5249 H       1  LIG1        0.0623
     30 H          -9.1224   -1.7473    3.1648 H       1  LIG1        0.0642
     31 H          -9.5325   -3.1049   -0.9065 H       1  LIG1        0.0642
     32 H          -1.0738   -0.9999   -3.7467 H       1  LIG1        0.0643
     33 H          -4.6124    1.6329   -1.4704 H       1  LIG1        0.0651
     34 H          -8.4610   -0.6608   -1.2022 H       1  LIG1        0.0503
     35 H          -7.6270   -2.2405   -1.1645 H       1  LIG1        0.0503
     36 H          -6.3095    0.2489   -1.2347 H       1  LIG1        0.0652
     37 H          -1.6160   -5.0433   -1.6050 H       1  LIG1        0.0328
     38 H          -1.1825   -4.0403   -0.2003 H       1  LIG1        0.0328
     39 H           0.0949   -4.6381   -1.2848 H       1  LIG1        0.0328
     40 H          -5.1464   -1.9811   -1.4176 H       1  LIG1        0.0600
     41 H          -5.2817   -2.1567    0.3513 H       1  LIG1        0.0600
     42 H          -2.5209   -2.4782   -0.7209 H       1  LIG1        0.1557
@<TRIPOS>BOND
     1     1     2   ar
     2     1     3   ar
     3     2     6   ar
     4     3     7   ar
     5     4     5   ar
     6     4     8   ar
     7     5     9   ar
     8     6    10   ar
     9     7    10   ar
    10     8    11   ar
    11     9    12   ar
    12    10    19    1
    13    11    12   ar
    14    11    20    1
    15    12    24    1
    16    13    19   am
    17    13    21    2
    18    13    23    1
    19    14    17    1
    20    14    20   am
    21    14    22    2
    22    15    16    1
    23    15    19    1
    24    16    18    1
    25    16    23    1
    26    18    24    1
    27     1    25    1
    28     2    26    1
    29     3    27    1
    30     4    28    1
    31     5    29    1
    32     6    30    1
    33     7    31    1
    34     8    32    1
    35     9    33    1
    36    15    34    1
    37    15    35    1
    38    16    36    1
    39    17    37    1
    40    17    38    1
    41    17    39    1
    42    18    40    1
    43    18    41    1
    44    20    42    1
