@<TRIPOS>MOLECULE
ChEBML345907
 38 40 0 0 0
SMALL
USER_CHARGES

@<TRIPOS>ATOM
      1 C          -2.7278    1.0144   -3.4247 C.ar    1  LIG1       -0.0619
      2 C          -3.0393   -0.3402   -3.5416 C.ar    1  LIG1       -0.0604
      3 C          -2.7833    1.6378   -2.1780 C.ar    1  LIG1       -0.0575
      4 C         -10.5576   -5.0424    0.3848 C.ar    1  LIG1       -0.0387
      5 C          -3.4063   -1.0714   -2.4119 C.ar    1  LIG1       -0.0393
      6 C         -11.8022   -5.4995    0.8274 C.ar    1  LIG1       -0.0416
      7 C         -11.9402   -3.7131    2.4664 C.ar    1  LIG1       -0.0343
      8 C          -9.8574   -2.1434    2.4223 C.ar    1  LIG1       -0.0261
      9 C         -10.6868   -3.2337    2.0371 C.ar    1  LIG1       -0.0007
     10 C          -3.1505    0.9065   -1.0484 C.ar    1  LIG1       -0.0285
     11 C         -10.0257   -3.9081    1.0083 C.ar    1  LIG1        0.0379
     12 C          -3.4619   -0.4480   -1.1653 C.ar    1  LIG1        0.0587
     13 C         -12.4846   -4.8466    1.8520 C.ar    1  LIG1        0.0413
     14 C          -8.7297   -2.1765    1.6346 C.ar    1  LIG1        0.0961
     15 C          -7.6105   -1.2886    1.6510 C.2     1  LIG1        0.2743
     16 C          -3.2017    1.6043    0.2715 C.3     1  LIG1       -0.0379
     17 N          -8.8405   -3.2442    0.7848 N.ar    1  LIG1       -0.3100
     18 N          -6.5699   -1.5333    0.7387 N.am    1  LIG1       -0.2197
     19 N          -5.4065   -0.6707    0.6921 N.3     1  LIG1       -0.2075
     20 O          -7.5513   -0.3163    2.4443 O.2     1  LIG1       -0.2687
     21 O          -2.9523   -1.1707    1.2888 O.2     1  LIG1       -0.4750
     22 O          -4.1948   -2.7525   -0.2225 O.2     1  LIG1       -0.4750
     23 S          -3.9330   -1.4052    0.2461 S.O2    1  LIG1       -0.1524
     24 CL        -14.0175   -5.4395    2.3690 Cl      1  LIG1       -0.0843
     25 H          -2.4427    1.5834   -4.3049 H       1  LIG1        0.0623
     26 H          -2.9970   -0.8251   -4.5125 H       1  LIG1        0.0623
     27 H          -2.5388    2.6936   -2.0981 H       1  LIG1        0.0626
     28 H         -10.0270   -5.5520   -0.4126 H       1  LIG1        0.0643
     29 H          -3.6471   -2.1262   -2.5166 H       1  LIG1        0.0642
     30 H         -12.2309   -6.3806    0.3544 H       1  LIG1        0.0639
     31 H         -12.4712   -3.2031    3.2660 H       1  LIG1        0.0645
     32 H         -10.0673   -1.4145    3.1937 H       1  LIG1        0.0651
     33 H          -4.2009    2.0215    0.4416 H       1  LIG1        0.0280
     34 H          -2.9653    0.9166    1.0925 H       1  LIG1        0.0280
     35 H          -2.4696    2.4199    0.3169 H       1  LIG1        0.0280
     36 H          -8.1536   -3.5098    0.0925 H       1  LIG1        0.1529
     37 H          -6.5768   -2.3125    0.0898 H       1  LIG1        0.1755
     38 H          -5.3960    0.1128    1.3565 H       1  LIG1        0.1892
@<TRIPOS>BOND
     1     1     2   ar
     2     1     3   ar
     3     2     5   ar
     4     3    10   ar
     5     4     6   ar
     6     4    11   ar
     7     5    12   ar
     8     6    13   ar
     9     7     9   ar
    10     7    13   ar
    11     8     9   ar
    12     8    14   ar
    13     9    11   ar
    14    10    12   ar
    15    10    16    1
    16    11    17   ar
    17    12    23    1
    18    13    24    1
    19    14    15    1
    20    14    17   ar
    21    15    18   am
    22    15    20    2
    23    18    19    1
    24    19    23    1
    25    21    23    2
    26    22    23    2
    27     1    25    1
    28     2    26    1
    29     3    27    1
    30     4    28    1
    31     5    29    1
    32     6    30    1
    33     7    31    1
    34     8    32    1
    35    16    33    1
    36    16    34    1
    37    16    35    1
    38    17    36    1
    39    18    37    1
    40    19    38    1
