@<TRIPOS>MOLECULE
ChEBML1274714
 32 33 0 0 0
SMALL
USER_CHARGES

@<TRIPOS>ATOM
      1 C         -10.3342   -4.9749    0.2043 C.ar    1  LIG1       -0.0383
      2 C         -11.6935   -5.2863    0.3001 C.ar    1  LIG1       -0.0388
      3 C         -12.0768   -3.4121    1.7959 C.ar    1  LIG1       -0.0315
      4 C          -9.9037   -2.0548    2.2860 C.ar    1  LIG1       -0.0253
      5 C         -10.7101   -3.0787    1.7147 C.ar    1  LIG1       -0.0003
      6 C          -9.8721   -3.8662    0.9224 C.ar    1  LIG1        0.0380
      7 C         -12.5532   -4.5183    1.0830 C.ar    1  LIG1        0.0332
      8 C          -8.6156   -2.2375    1.8381 C.ar    1  LIG1        0.1046
      9 C          -7.4543   -1.4617    2.1387 C.2     1  LIG1        0.3070
     10 C         -14.5701   -5.9139    0.5275 C.2     1  LIG1        0.2128
     11 C         -16.0392   -5.9344    0.8681 C.3     1  LIG1        0.0130
     12 C          -6.2085   -1.2430   -0.7821 C.3     1  LIG1       -0.0409
     13 C          -5.6401   -1.0605    0.6091 C.3     1  LIG1        0.0539
     14 N          -8.6066   -3.3322    1.0160 N.ar    1  LIG1       -0.3094
     15 N         -13.9059   -4.8546    1.1591 N.am    1  LIG1       -0.2856
     16 O          -7.4262   -0.4561    2.8853 O.2     1  LIG1       -0.2591
     17 O         -14.0864   -6.7594   -0.2182 O.2     1  LIG1       -0.2776
     18 O          -6.3237   -1.9374    1.5109 O.3     1  LIG1       -0.3114
     19 H          -9.6660   -5.5736   -0.4056 H       1  LIG1        0.0643
     20 H         -12.0735   -6.1449   -0.2499 H       1  LIG1        0.0643
     21 H         -12.7492   -2.8141    2.4058 H       1  LIG1        0.0649
     22 H         -10.2349   -1.2702    2.9534 H       1  LIG1        0.0652
     23 H         -16.5956   -5.3342    0.1427 H       1  LIG1        0.0328
     24 H         -16.1935   -5.5162    1.8668 H       1  LIG1        0.0328
     25 H         -16.4112   -6.9630    0.8546 H       1  LIG1        0.0328
     26 H          -6.0737   -2.2720   -1.1267 H       1  LIG1        0.0254
     27 H          -7.2765   -1.0020   -0.7974 H       1  LIG1        0.0254
     28 H          -5.7193   -0.5663   -1.4905 H       1  LIG1        0.0254
     29 H          -5.7781   -0.0293    0.9477 H       1  LIG1        0.0570
     30 H          -4.5732   -1.3025    0.6227 H       1  LIG1        0.0570
     31 H          -7.7908   -3.6989    0.5453 H       1  LIG1        0.1530
     32 H         -14.4913   -4.2545    1.7509 H       1  LIG1        0.1556
@<TRIPOS>BOND
     1     1     2   ar
     2     1     6   ar
     3     2     7   ar
     4     3     5   ar
     5     3     7   ar
     6     4     5   ar
     7     4     8   ar
     8     5     6   ar
     9     6    14   ar
    10     7    15    1
    11     8     9    1
    12     8    14   ar
    13     9    16    2
    14     9    18    1
    15    10    11    1
    16    10    15   am
    17    10    17    2
    18    12    13    1
    19    13    18    1
    20     1    19    1
    21     2    20    1
    22     3    21    1
    23     4    22    1
    24    11    23    1
    25    11    24    1
    26    11    25    1
    27    12    26    1
    28    12    27    1
    29    12    28    1
    30    13    29    1
    31    13    30    1
    32    14    31    1
    33    15    32    1
