@<TRIPOS>MOLECULE
ChEBML198623
 43 45 0 0 0
SMALL
USER_CHARGES

@<TRIPOS>ATOM
      1 C          -2.2553    0.9211   -3.4388 C.ar    1  LIG1       -0.0422
      2 C         -10.3560   -5.1607    0.9832 C.ar    1  LIG1       -0.0381
      3 C         -10.6863   -2.7709    1.1132 C.ar    1  LIG1       -0.0381
      4 C         -11.7220   -5.3375    0.7631 C.ar    1  LIG1       -0.0296
      5 C         -12.0523   -2.9477    0.8930 C.ar    1  LIG1       -0.0296
      6 C          -2.0012   -0.4241   -3.1957 C.ar    1  LIG1       -0.0384
      7 C          -3.3500    1.4974   -2.8149 C.ar    1  LIG1        0.0292
      8 C          -9.8381   -3.8774    1.1584 C.ar    1  LIG1        0.0341
      9 C         -12.5701   -4.2311    0.7179 C.ar    1  LIG1        0.0848
     10 C          -2.8377   -1.1419   -2.3481 C.ar    1  LIG1        0.0809
     11 C          -3.9064   -0.4732   -1.7730 C.ar    1  LIG1        0.1388
     12 C          -7.9431   -2.4362    1.6295 C.2     1  LIG1        0.3050
     13 C          -4.8842   -0.7153    0.4534 C.3     1  LIG1        0.0289
     14 C          -5.8310   -1.9462   -1.5228 C.3     1  LIG1        0.0289
     15 C          -6.3541   -0.6945    0.8670 C.3     1  LIG1        0.0315
     16 C          -6.5338   -2.7896   -0.4580 C.3     1  LIG1        0.0315
     17 C         -14.6394   -5.1895    1.4335 C.3     1  LIG1        0.5271
     18 N          -4.1851    0.8325   -1.9853 N.ar    1  LIG1       -0.2398
     19 N          -4.7415   -1.1648   -0.9341 N.pl3   1  LIG1       -0.3115
     20 N          -6.9803   -2.0040    0.6979 N.am    1  LIG1       -0.2824
     21 N          -8.4675   -3.6998    1.3793 N.am    1  LIG1       -0.2690
     22 O          -8.2899   -1.7520    2.5978 O.2     1  LIG1       -0.2537
     23 O         -13.9030   -4.4036    0.5031 O.3     1  LIG1       -0.2541
     24 F         -14.1028   -5.1085    2.6696 F       1  LIG1       -0.1435
     25 F         -14.5929   -6.4837    1.0434 F       1  LIG1       -0.1435
     26 F         -15.9351   -4.8126    1.4698 F       1  LIG1       -0.1435
     27 CL         -2.5082   -2.8073   -2.0578 Cl      1  LIG1       -0.0805
     28 H          -1.6169    1.5002   -4.0962 H       1  LIG1        0.0639
     29 H          -9.7043   -6.0301    1.0164 H       1  LIG1        0.0643
     30 H         -10.2939   -1.7662    1.2484 H       1  LIG1        0.0643
     31 H         -12.1194   -6.3397    0.6274 H       1  LIG1        0.0651
     32 H         -12.7080   -2.0819    0.8590 H       1  LIG1        0.0651
     33 H          -1.1478   -0.8977   -3.6742 H       1  LIG1        0.0640
     34 H          -3.5919    2.5434   -2.9721 H       1  LIG1        0.0840
     35 H          -4.4612    0.2879    0.5880 H       1  LIG1        0.0485
     36 H          -4.3207   -1.3983    1.1002 H       1  LIG1        0.0485
     37 H          -5.4422   -2.6074   -2.3063 H       1  LIG1        0.0485
     38 H          -6.5539   -1.2654   -1.9904 H       1  LIG1        0.0485
     39 H          -6.4433   -0.3645    1.9073 H       1  LIG1        0.0486
     40 H          -6.9198    0.0134    0.2488 H       1  LIG1        0.0486
     41 H          -7.3939   -3.2946   -0.9100 H       1  LIG1        0.0486
     42 H          -5.8535   -3.5591   -0.0738 H       1  LIG1        0.0486
     43 H          -7.8950   -4.5356    1.4032 H       1  LIG1        0.1573
@<TRIPOS>BOND
     1     1     6   ar
     2     1     7   ar
     3     2     4   ar
     4     2     8   ar
     5     3     5   ar
     6     3     8   ar
     7     4     9   ar
     8     5     9   ar
     9     6    10   ar
    10     7    18   ar
    11     8    21    1
    12     9    23    1
    13    10    11   ar
    14    10    27    1
    15    11    18   ar
    16    11    19    1
    17    12    20   am
    18    12    21   am
    19    12    22    2
    20    13    15    1
    21    13    19    1
    22    14    16    1
    23    14    19    1
    24    15    20    1
    25    16    20    1
    26    17    23    1
    27    17    24    1
    28    17    25    1
    29    17    26    1
    30     1    28    1
    31     2    29    1
    32     3    30    1
    33     4    31    1
    34     5    32    1
    35     6    33    1
    36     7    34    1
    37    13    35    1
    38    13    36    1
    39    14    37    1
    40    14    38    1
    41    15    39    1
    42    15    40    1
    43    16    41    1
    44    16    42    1
    45    21    43    1
