@<TRIPOS>MOLECULE
ChEBML369984
 47 50 0 0 0
SMALL
USER_CHARGES

@<TRIPOS>ATOM
      1 C          -0.9773    1.7555   -1.8483 C.ar    1  LIG1       -0.0591
      2 C         -12.1645   -3.5093    1.7691 C.ar    1  LIG1       -0.0504
      3 C          -2.3616    1.7098   -1.6830 C.ar    1  LIG1       -0.0588
      4 C         -12.5283   -4.7848    1.3224 C.ar    1  LIG1       -0.0313
      5 C          -0.3712    1.0140   -2.8624 C.ar    1  LIG1       -0.0263
      6 C         -10.1224   -1.8984    1.9668 C.ar    1  LIG1       -0.0262
      7 C          -2.5336    0.1811   -3.5459 C.ar    1  LIG1       -0.0231
      8 C         -10.2520   -5.2413    0.6054 C.ar    1  LIG1       -0.0100
      9 C         -10.8262   -3.0895    1.6340 C.ar    1  LIG1       -0.0020
     10 C          -3.1398    0.9226   -2.5318 C.ar    1  LIG1       -0.0448
     11 C          -9.9027   -3.9635    1.0564 C.ar    1  LIG1        0.0404
     12 C         -11.5851   -5.6358    0.7499 C.ar    1  LIG1        0.0732
     13 C          -1.1493    0.2268   -3.7112 C.ar    1  LIG1        0.1230
     14 C          -8.8096   -2.0692    1.5922 C.ar    1  LIG1        0.0947
     15 C          -7.7198   -1.1471    1.7237 C.2     1  LIG1        0.2598
     16 C          -6.5182   -0.6333   -1.6214 C.3     1  LIG1       -0.0341
     17 C          -4.8228    0.1765    0.0641 C.3     1  LIG1       -0.0341
     18 C          -6.9723   -1.6901   -0.6162 C.3     1  LIG1        0.0147
     19 C          -5.3100   -0.9043    1.0262 C.3     1  LIG1        0.0147
     20 C          -5.0487   -0.2418   -1.3977 C.3     1  LIG1       -0.0344
     21 C          -4.6323    0.8743   -2.3526 C.3     1  LIG1       -0.0248
     22 N          -8.6870   -3.3178    1.0438 N.ar    1  LIG1       -0.3100
     23 N          -6.7134   -1.2433    0.7535 N.am    1  LIG1       -0.2967
     24 O          -7.6992   -0.3329    2.6449 O.2     1  LIG1       -0.2702
     25 O         -11.9665   -6.8736    0.3229 O.3     1  LIG1       -0.3608
     26 F          -0.5674   -0.4856   -4.6848 F       1  LIG1       -0.2069
     27 H          -0.3714    2.3689   -1.1877 H       1  LIG1        0.0624
     28 H         -12.9103   -2.8554    2.2119 H       1  LIG1        0.0630
     29 H          -2.8251    2.2908   -0.8899 H       1  LIG1        0.0625
     30 H         -13.5615   -5.1073    1.4277 H       1  LIG1        0.0650
     31 H           0.7064    1.0492   -2.9906 H       1  LIG1        0.0653
     32 H         -10.5363   -1.0129    2.4305 H       1  LIG1        0.0651
     33 H          -3.1315   -0.4345   -4.2125 H       1  LIG1        0.0656
     34 H          -9.5142   -5.9012    0.1602 H       1  LIG1        0.0670
     35 H          -6.6560   -1.0142   -2.6401 H       1  LIG1        0.0285
     36 H          -7.1545    0.2556   -1.5202 H       1  LIG1        0.0285
     37 H          -5.3611    1.1112    0.2681 H       1  LIG1        0.0285
     38 H          -3.7584    0.3710    0.2399 H       1  LIG1        0.0285
     39 H          -8.0353   -1.9063   -0.7618 H       1  LIG1        0.0469
     40 H          -6.4225   -2.6266   -0.7671 H       1  LIG1        0.0469
     41 H          -4.7227   -1.8219    0.9014 H       1  LIG1        0.0469
     42 H          -5.1673   -0.5662    2.0554 H       1  LIG1        0.0469
     43 H          -4.4220   -1.1188   -1.6074 H       1  LIG1        0.0307
     44 H          -4.9939    1.8345   -1.9708 H       1  LIG1        0.0319
     45 H          -5.1201    0.7260   -3.3216 H       1  LIG1        0.0319
     46 H          -7.8291   -3.7122    0.6829 H       1  LIG1        0.1529
     47 H         -12.9129   -7.0062    0.4868 H       1  LIG1        0.2182
@<TRIPOS>BOND
     1     1     3   ar
     2     1     5   ar
     3     2     4   ar
     4     2     9   ar
     5     3    10   ar
     6     4    12   ar
     7     5    13   ar
     8     6     9   ar
     9     6    14   ar
    10     7    10   ar
    11     7    13   ar
    12     8    11   ar
    13     8    12   ar
    14     9    11   ar
    15    10    21    1
    16    11    22   ar
    17    12    25    1
    18    13    26    1
    19    14    15    1
    20    14    22   ar
    21    15    23   am
    22    15    24    2
    23    16    18    1
    24    16    20    1
    25    17    19    1
    26    17    20    1
    27    18    23    1
    28    19    23    1
    29    20    21    1
    30     1    27    1
    31     2    28    1
    32     3    29    1
    33     4    30    1
    34     5    31    1
    35     6    32    1
    36     7    33    1
    37     8    34    1
    38    16    35    1
    39    16    36    1
    40    17    37    1
    41    17    38    1
    42    18    39    1
    43    18    40    1
    44    19    41    1
    45    19    42    1
    46    20    43    1
    47    21    44    1
    48    21    45    1
    49    22    46    1
    50    25    47    1
