@<TRIPOS>MOLECULE
ChEBML300428
 58 60 0 0 0
SMALL
USER_CHARGES

@<TRIPOS>ATOM
      1 C         -10.3464   -5.1708    0.4644 C.ar    1  LIG1       -0.0387
      2 C         -11.6840   -5.5239    0.6649 C.ar    1  LIG1       -0.0416
      3 C         -12.0824   -3.5080    1.9590 C.ar    1  LIG1       -0.0343
      4 C          -9.9534   -2.0171    2.1806 C.ar    1  LIG1       -0.0262
      5 C         -10.7378   -3.1313    1.7702 C.ar    1  LIG1       -0.0007
      6 C          -9.9025   -3.9696    1.0287 C.ar    1  LIG1        0.0379
      7 C         -12.5403   -4.7067    1.4003 C.ar    1  LIG1        0.0413
      8 C          -8.6808   -2.1975    1.6898 C.ar    1  LIG1        0.0945
      9 C          -7.4978   -1.3127    1.8473 C.2     1  LIG1        0.2576
     10 C          -4.6246   -0.6215   -0.0685 C.2     1  LIG1        0.2318
     11 C          -2.3915    0.0731   -3.6638 C.3     1  LIG1       -0.0515
     12 C          -3.1449    1.4015   -3.5519 C.3     1  LIG1       -0.0515
     13 C          -2.5704   -0.6276   -2.3196 C.3     1  LIG1       -0.0345
     14 C          -3.7375    1.4329   -2.1455 C.3     1  LIG1       -0.0345
     15 C          -2.8162    0.5191   -1.3464 C.3     1  LIG1        0.0253
     16 C          -2.5845    4.5525    2.4670 C.3     1  LIG1       -0.0457
     17 C          -4.2438    3.3595    3.8896 C.3     1  LIG1       -0.0457
     18 C          -5.0915   -1.0116    1.3228 C.3     1  LIG1        0.0887
     19 C          -3.0675    1.7578    1.6706 C.3     1  LIG1        0.0022
     20 C          -2.6443    0.4028    1.1095 C.3     1  LIG1        0.0194
     21 C          -2.3036    2.1232    2.9371 C.3     1  LIG1       -0.0334
     22 N          -8.6600   -3.3778    0.9963 N.ar    1  LIG1       -0.3101
     23 N          -6.3227   -1.7439    1.2398 N.am    1  LIG1       -0.3013
     24 N          -3.3969    0.0808   -0.1105 N.am    1  LIG1       -0.2972
     25 N          -2.8031    3.4243    3.4452 N.4     1  LIG1        0.2418
     26 O          -7.6036   -0.2810    2.5053 O.2     1  LIG1       -0.2704
     27 O          -5.2921   -0.9147   -1.0639 O.2     1  LIG1       -0.2756
     28 CL        -14.1832   -5.1752    1.6245 Cl      1  LIG1       -0.0843
     29 H          -9.6806   -5.8082   -0.1078 H       1  LIG1        0.0643
     30 H         -12.0465   -6.4546    0.2338 H       1  LIG1        0.0639
     31 H         -12.7490   -2.8699    2.5332 H       1  LIG1        0.0645
     32 H         -10.2884   -1.1752    2.7718 H       1  LIG1        0.0651
     33 H          -2.7689   -0.5421   -4.4868 H       1  LIG1        0.0267
     34 H          -1.3294    0.2644   -3.8558 H       1  LIG1        0.0267
     35 H          -2.4477    2.2357   -3.6913 H       1  LIG1        0.0267
     36 H          -3.9244    1.4936   -4.3147 H       1  LIG1        0.0267
     37 H          -3.4364   -1.3008   -2.3602 H       1  LIG1        0.0285
     38 H          -1.6977   -1.2286   -2.0458 H       1  LIG1        0.0285
     39 H          -3.7797    2.4470   -1.7357 H       1  LIG1        0.0285
     40 H          -4.7623    1.0409   -2.1632 H       1  LIG1        0.0285
     41 H          -1.8769    1.0331   -1.1106 H       1  LIG1        0.0506
     42 H          -3.1527    4.3255    1.5631 H       1  LIG1        0.0777
     43 H          -2.9404    5.4731    2.9336 H       1  LIG1        0.0777
     44 H          -1.5152    4.6082    2.2546 H       1  LIG1        0.0777
     45 H          -4.8507    3.1047    3.0188 H       1  LIG1        0.0777
     46 H          -4.3214    2.5908    4.6608 H       1  LIG1        0.0777
     47 H          -4.5162    4.3403    4.2842 H       1  LIG1        0.0777
     48 H          -4.3536   -1.6589    1.8035 H       1  LIG1        0.0567
     49 H          -5.2790   -0.1194    1.9259 H       1  LIG1        0.0567
     50 H          -4.1461    1.7569    1.8733 H       1  LIG1        0.0337
     51 H          -2.8882    2.5228    0.9049 H       1  LIG1        0.0337
     52 H          -1.5769    0.4246    0.8666 H       1  LIG1        0.0471
     53 H          -2.7970   -0.3856    1.8540 H       1  LIG1        0.0471
     54 H          -2.4543    1.3948    3.7390 H       1  LIG1        0.0815
     55 H          -1.2332    2.2471    2.7480 H       1  LIG1        0.0815
     56 H          -7.8514   -3.7623    0.5271 H       1  LIG1        0.1529
     57 H          -6.3044   -2.6454    0.7641 H       1  LIG1        0.1503
     58 H          -2.2546    3.6667    4.2882 H       1  LIG1        0.1997
@<TRIPOS>BOND
     1     1     2   ar
     2     1     6   ar
     3     2     7   ar
     4     3     5   ar
     5     3     7   ar
     6     4     5   ar
     7     4     8   ar
     8     5     6   ar
     9     6    22   ar
    10     7    28    1
    11     8     9    1
    12     8    22   ar
    13     9    23   am
    14     9    26    2
    15    10    18    1
    16    10    24   am
    17    10    27    2
    18    11    12    1
    19    11    13    1
    20    12    14    1
    21    13    15    1
    22    14    15    1
    23    15    24    1
    24    16    25    1
    25    17    25    1
    26    18    23    1
    27    19    20    1
    28    19    21    1
    29    20    24    1
    30    21    25    1
    31     1    29    1
    32     2    30    1
    33     3    31    1
    34     4    32    1
    35    11    33    1
    36    11    34    1
    37    12    35    1
    38    12    36    1
    39    13    37    1
    40    13    38    1
    41    14    39    1
    42    14    40    1
    43    15    41    1
    44    16    42    1
    45    16    43    1
    46    16    44    1
    47    17    45    1
    48    17    46    1
    49    17    47    1
    50    18    48    1
    51    18    49    1
    52    19    50    1
    53    19    51    1
    54    20    52    1
    55    20    53    1
    56    21    54    1
    57    21    55    1
    58    22    56    1
    59    23    57    1
    60    25    58    1
