@<TRIPOS>MOLECULE
ChEBML300335
 60 63 0 0 0
SMALL
USER_CHARGES

@<TRIPOS>ATOM
      1 C         -10.3464   -5.1708    0.4644 C.ar    1  LIG1       -0.0387
      2 C         -11.6840   -5.5238    0.6649 C.ar    1  LIG1       -0.0416
      3 C         -12.0824   -3.5080    1.9589 C.ar    1  LIG1       -0.0343
      4 C          -9.9534   -2.0172    2.1806 C.ar    1  LIG1       -0.0262
      5 C         -10.7378   -3.1312    1.7702 C.ar    1  LIG1       -0.0007
      6 C          -9.9025   -3.9696    1.0288 C.ar    1  LIG1        0.0379
      7 C         -12.5403   -4.7068    1.4003 C.ar    1  LIG1        0.0413
      8 C          -8.6808   -2.1975    1.6897 C.ar    1  LIG1        0.0945
      9 C          -7.4980   -1.3126    1.8473 C.2     1  LIG1        0.2576
     10 C          -4.6246   -0.6214   -0.0685 C.2     1  LIG1        0.2320
     11 C          -2.3651    0.0884   -3.6677 C.3     1  LIG1       -0.0515
     12 C          -3.1185    1.4167   -3.5559 C.3     1  LIG1       -0.0515
     13 C          -2.5608   -0.6212   -2.3305 C.3     1  LIG1       -0.0344
     14 C          -3.7278    1.4394   -2.1565 C.3     1  LIG1       -0.0344
     15 C           0.1310    1.5406    2.1144 C.3     1  LIG1       -0.0101
     16 C           0.5909   -0.8566    2.5874 C.3     1  LIG1       -0.0101
     17 C           0.8674    1.8694    3.4019 C.3     1  LIG1        0.0859
     18 C           1.3041   -0.4038    3.8502 C.3     1  LIG1        0.0859
     19 C          -2.8171    0.5192   -1.3527 C.3     1  LIG1        0.0256
     20 C          -5.0916   -1.0114    1.3228 C.3     1  LIG1        0.0887
     21 C          -2.6448    0.4035    1.1034 C.3     1  LIG1        0.0536
     22 C          -1.2675   -0.2292    1.0390 C.3     1  LIG1       -0.0179
     23 N          -8.6600   -3.3778    0.9963 N.ar    1  LIG1       -0.3101
     24 N          -6.3228   -1.7438    1.2398 N.am    1  LIG1       -0.3013
     25 N          -3.4202    0.0679   -0.1118 N.am    1  LIG1       -0.2922
     26 N          -0.4725    0.1625    2.2513 N.4     1  LIG1        0.2505
     27 O          -7.6038   -0.2809    2.5053 O.2     1  LIG1       -0.2704
     28 O          -5.2922   -0.9147   -1.0640 O.2     1  LIG1       -0.2756
     29 O           1.8752    0.8923    3.6661 O.3     1  LIG1       -0.3705
     30 CL        -14.1831   -5.1752    1.6245 Cl      1  LIG1       -0.0843
     31 H          -9.6806   -5.8082   -0.1078 H       1  LIG1        0.0643
     32 H         -12.0465   -6.4547    0.2338 H       1  LIG1        0.0639
     33 H         -12.7490   -2.8699    2.5333 H       1  LIG1        0.0645
     34 H         -10.2885   -1.1752    2.7718 H       1  LIG1        0.0651
     35 H          -2.7333   -0.5209   -4.4992 H       1  LIG1        0.0267
     36 H          -1.3007    0.2798   -3.8458 H       1  LIG1        0.0267
     37 H          -2.4189    2.2511   -3.6814 H       1  LIG1        0.0267
     38 H          -3.8888    1.5147   -4.3274 H       1  LIG1        0.0267
     39 H          -3.4268   -1.2931   -2.3859 H       1  LIG1        0.0285
     40 H          -1.6920   -1.2248   -2.0502 H       1  LIG1        0.0285
     41 H          -3.7739    2.4507   -1.7405 H       1  LIG1        0.0285
     42 H          -4.7527    1.0485   -2.1890 H       1  LIG1        0.0285
     43 H          -0.6842    2.2464    1.9290 H       1  LIG1        0.0839
     44 H           0.8112    1.5109    1.2561 H       1  LIG1        0.0839
     45 H           1.2741   -0.9023    1.7323 H       1  LIG1        0.0839
     46 H           0.0961   -1.8217    2.7320 H       1  LIG1        0.0839
     47 H           1.3640    2.8401    3.3062 H       1  LIG1        0.0622
     48 H           0.1829    1.9307    4.2564 H       1  LIG1        0.0622
     49 H           0.6287   -0.3881    4.7140 H       1  LIG1        0.0622
     50 H           2.1197   -1.0956    4.0831 H       1  LIG1        0.0622
     51 H          -1.8801    1.0307   -1.1022 H       1  LIG1        0.0506
     52 H          -4.3537   -1.6587    1.8035 H       1  LIG1        0.0567
     53 H          -5.2791   -0.1193    1.9258 H       1  LIG1        0.0567
     54 H          -3.1998    0.0606    1.9828 H       1  LIG1        0.0525
     55 H          -2.5548    1.4929    1.1609 H       1  LIG1        0.0525
     56 H          -0.7070    0.1252    0.1694 H       1  LIG1        0.0831
     57 H          -1.3108   -1.3225    1.0284 H       1  LIG1        0.0831
     58 H          -7.8514   -3.7623    0.5271 H       1  LIG1        0.1529
     59 H          -6.3044   -2.6454    0.7640 H       1  LIG1        0.1503
     60 H          -1.1332    0.1914    3.0401 H       1  LIG1        0.2006
@<TRIPOS>BOND
     1     1     2   ar
     2     1     6   ar
     3     2     7   ar
     4     3     5   ar
     5     3     7   ar
     6     4     5   ar
     7     4     8   ar
     8     5     6   ar
     9     6    23   ar
    10     7    30    1
    11     8     9    1
    12     8    23   ar
    13     9    24   am
    14     9    27    2
    15    10    20    1
    16    10    25   am
    17    10    28    2
    18    11    12    1
    19    11    13    1
    20    12    14    1
    21    13    19    1
    22    14    19    1
    23    15    17    1
    24    15    26    1
    25    16    18    1
    26    16    26    1
    27    17    29    1
    28    18    29    1
    29    19    25    1
    30    20    24    1
    31    21    22    1
    32    21    25    1
    33    22    26    1
    34     1    31    1
    35     2    32    1
    36     3    33    1
    37     4    34    1
    38    11    35    1
    39    11    36    1
    40    12    37    1
    41    12    38    1
    42    13    39    1
    43    13    40    1
    44    14    41    1
    45    14    42    1
    46    15    43    1
    47    15    44    1
    48    16    45    1
    49    16    46    1
    50    17    47    1
    51    17    48    1
    52    18    49    1
    53    18    50    1
    54    19    51    1
    55    20    52    1
    56    20    53    1
    57    21    54    1
    58    21    55    1
    59    22    56    1
    60    22    57    1
    61    23    58    1
    62    24    59    1
    63    26    60    1
