@<TRIPOS>MOLECULE
ChEBML348359
 35 38 0 0 0
SMALL
USER_CHARGES

@<TRIPOS>ATOM
      1 C         -11.5311   -5.5364    0.6137 C.ar    1  LIG1       -0.0601
      2 C         -12.4214   -4.7481    1.3401 C.ar    1  LIG1       -0.0586
      3 C         -10.2006   -5.1456    0.4375 C.ar    1  LIG1       -0.0402
      4 C          -3.6819   -2.4169   -1.1148 C.ar    1  LIG1       -0.0373
      5 C          -2.8911   -1.7025   -2.0194 C.ar    1  LIG1       -0.0244
      6 C          -4.1184    0.3432   -1.5659 C.ar    1  LIG1       -0.0171
      7 C          -6.0180    0.0090    0.1902 C.ar    1  LIG1       -0.0275
      8 C          -9.9222   -1.9942    2.1802 C.ar    1  LIG1       -0.0273
      9 C          -4.9285   -0.3559   -0.6492 C.ar    1  LIG1        0.0007
     10 C         -10.6690   -3.1265    1.7498 C.ar    1  LIG1        0.0007
     11 C         -12.0056   -3.5412    1.9140 C.ar    1  LIG1       -0.0419
     12 C          -4.6921   -1.7171   -0.4453 C.ar    1  LIG1        0.0380
     13 C          -9.7991   -3.9367    1.0169 C.ar    1  LIG1        0.0380
     14 C          -3.1042   -0.3437   -2.2430 C.ar    1  LIG1        0.1235
     15 C          -6.4147   -1.1167    0.8746 C.ar    1  LIG1        0.0811
     16 C          -8.6373   -2.1365    1.7093 C.ar    1  LIG1        0.0811
     17 C          -7.5264   -1.2551    1.8840 C.2     1  LIG1        0.2206
     18 C         -13.0060   -2.7373    2.6825 C.3     1  LIG1       -0.0391
     19 N          -5.6089   -2.1526    0.4848 N.ar    1  LIG1       -0.3112
     20 N          -8.5728   -3.3109    1.0086 N.ar    1  LIG1       -0.3112
     21 O          -7.4188   -0.5388    2.9065 O.2     1  LIG1       -0.2856
     22 F          -2.3291    0.3143   -3.1161 F       1  LIG1       -0.2069
     23 H         -11.8757   -6.4703    0.1769 H       1  LIG1        0.0623
     24 H         -13.4498   -5.0823    1.4571 H       1  LIG1        0.0625
     25 H          -9.5082   -5.7598   -0.1281 H       1  LIG1        0.0642
     26 H          -3.5157   -3.4751   -0.9415 H       1  LIG1        0.0644
     27 H          -2.0981   -2.2162   -2.5570 H       1  LIG1        0.0654
     28 H          -4.2729    1.4026   -1.7496 H       1  LIG1        0.0660
     29 H          -6.4613    0.9917    0.2807 H       1  LIG1        0.0651
     30 H         -10.2882   -1.1651    2.7713 H       1  LIG1        0.0651
     31 H         -12.9981   -3.0332    3.7370 H       1  LIG1        0.0280
     32 H         -12.7848   -1.6657    2.6165 H       1  LIG1        0.0280
     33 H         -14.0171   -2.8817    2.2843 H       1  LIG1        0.0280
     34 H          -5.6752   -3.1013    0.8274 H       1  LIG1        0.1529
     35 H          -7.7463   -3.6702    0.5509 H       1  LIG1        0.1529
@<TRIPOS>BOND
     1     1     2   ar
     2     1     3   ar
     3     2    11   ar
     4     3    13   ar
     5     4     5   ar
     6     4    12   ar
     7     5    14   ar
     8     6     9   ar
     9     6    14   ar
    10     7     9   ar
    11     7    15   ar
    12     8    10   ar
    13     8    16   ar
    14     9    12   ar
    15    10    11   ar
    16    10    13   ar
    17    11    18    1
    18    12    19   ar
    19    13    20   ar
    20    14    22    1
    21    15    17    1
    22    15    19   ar
    23    16    17    1
    24    16    20   ar
    25    17    21    2
    26     1    23    1
    27     2    24    1
    28     3    25    1
    29     4    26    1
    30     5    27    1
    31     6    28    1
    32     7    29    1
    33     8    30    1
    34    18    31    1
    35    18    32    1
    36    18    33    1
    37    19    34    1
    38    20    35    1
