@<TRIPOS>MOLECULE
ChEBML311455
 50 52 0 0 0
SMALL
USER_CHARGES

@<TRIPOS>ATOM
      1 C         -12.3616   -3.6968    1.8389 C.ar    1  LIG1       -0.0569
      2 C         -11.6480   -5.7757    0.8358 C.ar    1  LIG1       -0.0569
      3 C         -11.0633   -3.1984    1.7296 C.ar    1  LIG1       -0.0404
      4 C         -10.3498   -5.2773    0.7266 C.ar    1  LIG1       -0.0404
      5 C          -2.8813   -1.1580   -2.2026 C.ar    1  LIG1       -0.0137
      6 C         -12.6539   -4.9854    1.3921 C.ar    1  LIG1       -0.0453
      7 C          -1.9083   -0.5647   -2.9875 C.ar    1  LIG1       -0.0083
      8 C         -10.0575   -3.9887    1.1735 C.ar    1  LIG1        0.0340
      9 C          -3.8921   -0.3568   -1.7110 C.ar    1  LIG1        0.1433
     10 C          -2.0106    0.7905   -3.2290 C.ar    1  LIG1        0.1543
     11 C          -8.5211   -2.1210    0.9695 C.2     1  LIG1        0.3050
     12 C          -5.5110   -0.1469    0.1074 C.3     1  LIG1        0.0289
     13 C          -5.5702   -2.1062   -1.4655 C.3     1  LIG1        0.0289
     14 C          -7.0230   -0.3591    0.0799 C.3     1  LIG1        0.0315
     15 C          -6.4644   -2.7339   -0.3953 C.3     1  LIG1        0.0315
     16 C          -0.7991   -1.3940   -3.5376 C.3     1  LIG1       -0.0365
     17 C         -14.1227   -6.7555    2.4229 C.3     1  LIG1       -0.0587
     18 C         -14.6669   -5.8397    0.1382 C.3     1  LIG1       -0.0587
     19 C         -14.0419   -5.5181    1.5090 C.3     1  LIG1       -0.0219
     20 N          -3.9673    0.9672   -1.9634 N.ar    1  LIG1       -0.1337
     21 N          -3.0111    1.5502   -2.7351 N.ar    1  LIG1       -0.1364
     22 N          -4.8556   -0.9445   -0.9327 N.pl3   1  LIG1       -0.3112
     23 N          -7.3723   -1.7696    0.2359 N.am    1  LIG1       -0.2824
     24 N          -8.7548   -3.4888    1.0634 N.am    1  LIG1       -0.2691
     25 O          -9.2598   -1.2824    1.4960 O.2     1  LIG1       -0.2537
     26 CL         -0.8763    1.6559   -4.1835 Cl      1  LIG1       -0.0599
     27 H         -13.1386   -3.0748    2.2756 H       1  LIG1        0.0626
     28 H         -11.8667   -6.7811    0.4858 H       1  LIG1        0.0626
     29 H         -10.8469   -2.1926    2.0808 H       1  LIG1        0.0642
     30 H          -9.5733   -5.9021    0.2925 H       1  LIG1        0.0642
     31 H          -2.8468   -2.2208   -1.9826 H       1  LIG1        0.0664
     32 H          -5.2980    0.9214   -0.0225 H       1  LIG1        0.0485
     33 H          -5.1064   -0.4458    1.0819 H       1  LIG1        0.0485
     34 H          -4.8567   -2.8578   -1.8240 H       1  LIG1        0.0485
     35 H          -6.1826   -1.7940   -2.3212 H       1  LIG1        0.0485
     36 H          -7.4968    0.2367    0.8671 H       1  LIG1        0.0486
     37 H          -7.4425   -0.0292   -0.8784 H       1  LIG1        0.0486
     38 H          -7.0480   -3.5440   -0.8449 H       1  LIG1        0.0486
     39 H          -5.8518   -3.1633    0.4066 H       1  LIG1        0.0486
     40 H          -1.0745   -1.7995   -4.5194 H       1  LIG1        0.0281
     41 H           0.1214   -0.8059   -3.6509 H       1  LIG1        0.0281
     42 H          -0.5587   -2.2330   -2.8707 H       1  LIG1        0.0281
     43 H         -13.5002   -7.5751    2.0479 H       1  LIG1        0.0236
     44 H         -15.1497   -7.1283    2.5029 H       1  LIG1        0.0236
     45 H         -13.7763   -6.5084    3.4327 H       1  LIG1        0.0236
     46 H         -14.0696   -6.5934   -0.3870 H       1  LIG1        0.0236
     47 H         -14.7172   -4.9492   -0.4979 H       1  LIG1        0.0236
     48 H         -15.6845   -6.2320    0.2411 H       1  LIG1        0.0236
     49 H         -14.6986   -4.7562    1.9706 H       1  LIG1        0.0346
     50 H          -7.9996   -4.1628    1.1121 H       1  LIG1        0.1573
@<TRIPOS>BOND
     1     1     3   ar
     2     1     6   ar
     3     2     4   ar
     4     2     6   ar
     5     3     8   ar
     6     4     8   ar
     7     5     7   ar
     8     5     9   ar
     9     6    19    1
    10     7    10   ar
    11     7    16    1
    12     8    24    1
    13     9    20   ar
    14     9    22    1
    15    10    21   ar
    16    10    26    1
    17    11    23   am
    18    11    24   am
    19    11    25    2
    20    12    14    1
    21    12    22    1
    22    13    15    1
    23    13    22    1
    24    14    23    1
    25    15    23    1
    26    17    19    1
    27    18    19    1
    28    20    21   ar
    29     1    27    1
    30     2    28    1
    31     3    29    1
    32     4    30    1
    33     5    31    1
    34    12    32    1
    35    12    33    1
    36    13    34    1
    37    13    35    1
    38    14    36    1
    39    14    37    1
    40    15    38    1
    41    15    39    1
    42    16    40    1
    43    16    41    1
    44    16    42    1
    45    17    43    1
    46    17    44    1
    47    17    45    1
    48    18    46    1
    49    18    47    1
    50    18    48    1
    51    19    49    1
    52    24    50    1
