@<TRIPOS>MOLECULE
ChEBML1278993
 45 47 0 0 0
SMALL
USER_CHARGES

@<TRIPOS>ATOM
      1 C         -12.0266   -3.7284    1.6442 C.ar    1  LIG1        0.0000
      2 C         -12.2911   -5.0247    1.1880 C.ar    1  LIG1        0.0000
      3 C          -5.3035   -0.5718    1.4683 C.ar    1  LIG1        0.0000
      4 C          -9.9537   -5.3567    0.6130 C.ar    1  LIG1        0.0000
      5 C          -5.5946   -1.3616   -1.1274 C.ar    1  LIG1        0.0000
      6 C         -10.7080   -3.2349    1.5860 C.ar    1  LIG1        0.0000
      7 C          -4.2117   -0.5087    0.6095 C.ar    1  LIG1        0.0000
      8 C         -10.0930   -2.0043    1.9498 C.ar    1  LIG1        0.0000
      9 C          -9.7040   -4.0589    1.0727 C.ar    1  LIG1        0.0000
     10 C          -4.3517   -0.9093   -0.7146 C.ar    1  LIG1        0.0000
     11 C         -11.2691   -5.8247    0.6807 C.ar    1  LIG1        0.0000
     12 C          -6.5038   -1.0390    0.9576 C.ar    1  LIG1        0.0000
     13 C          -8.7524   -2.1032    1.6562 C.ar    1  LIG1        0.0000
     14 C          -7.7217   -1.1300    1.8415 C.2     1  LIG1        0.0000
     15 C         -10.7656   -0.9305    4.0680 C.2     1  LIG1        0.0000
     16 C          -2.8717    1.5082    1.2595 C.3     1  LIG1        0.0000
     17 C          -2.1157    0.4879   -3.1620 C.3     1  LIG1        0.0000
     18 C         -10.7749   -0.8319    2.5387 C.3     1  LIG1        0.0000
     19 C          -2.9016   -0.0115    1.1231 C.3     1  LIG1        0.0000
     20 C          -3.4709   -0.0438   -2.7470 C.3     1  LIG1        0.0000
     21 N          -6.6781   -1.4371   -0.3225 N.ar    1  LIG1        0.0000
     22 N          -8.5276   -3.3459    1.1274 N.ar    1  LIG1        0.0000
     23 O         -11.3765   -0.0028    4.6704 O.co2   1  LIG1       -0.5000
     24 O          -7.7818   -0.2882    2.7670 O.2     1  LIG1        0.0000
     25 O         -10.1487   -1.9277    4.5388 O.co2   1  LIG1       -0.5000
     26 O          -3.3139   -0.8641   -1.5881 O.3     1  LIG1        0.0000
     27 CL        -11.6296   -7.4168    0.1275 Cl      1  LIG1        0.0000
     28 H         -12.8337   -3.1164    2.0369 H       1  LIG1        0.0000
     29 H         -13.3121   -5.3969    1.2360 H       1  LIG1        0.0000
     30 H          -5.2161   -0.2644    2.5058 H       1  LIG1        0.0000
     31 H          -9.1496   -5.9704    0.2188 H       1  LIG1        0.0000
     32 H          -5.7621   -1.6867   -2.1493 H       1  LIG1        0.0000
     33 H          -3.0923    1.9933    0.3027 H       1  LIG1        0.0000
     34 H          -1.8856    1.8474    1.5921 H       1  LIG1        0.0000
     35 H          -3.6126    1.8521    1.9892 H       1  LIG1        0.0000
     36 H          -1.6725    1.0914   -2.3649 H       1  LIG1        0.0000
     37 H          -1.4350   -0.3354   -3.4023 H       1  LIG1        0.0000
     38 H          -2.2022    1.1029   -4.0640 H       1  LIG1        0.0000
     39 H         -10.2946    0.1161    2.2332 H       1  LIG1        0.0000
     40 H         -11.8197   -0.7482    2.1866 H       1  LIG1        0.0000
     41 H          -2.6762   -0.4658    2.1009 H       1  LIG1        0.0000
     42 H          -2.0835   -0.3301    0.4578 H       1  LIG1        0.0000
     43 H          -3.9086   -0.6463   -3.5486 H       1  LIG1        0.0000
     44 H          -4.1495    0.7800   -2.5066 H       1  LIG1        0.0000
     45 H          -7.6292   -3.6932    0.8206 H       1  LIG1        0.0000
@<TRIPOS>BOND
     1     1     2   ar
     2     1     6   ar
     3     2    11   ar
     4     3     7   ar
     5     3    12   ar
     6     4     9   ar
     7     4    11   ar
     8     5    10   ar
     9     5    21   ar
    10     6     8   ar
    11     6     9   ar
    12     7    10   ar
    13     7    19    1
    14     8    13   ar
    15     8    18    1
    16     9    22   ar
    17    10    26    1
    18    11    27    1
    19    12    14    1
    20    12    21   ar
    21    13    14    1
    22    13    22   ar
    23    14    24    2
    24    15    18    1
    25    15    23   ar
    26    15    25   ar
    27    16    19    1
    28    17    20    1
    29    20    26    1
    30     1    28    1
    31     2    29    1
    32     3    30    1
    33     4    31    1
    34     5    32    1
    35    16    33    1
    36    16    34    1
    37    16    35    1
    38    17    36    1
    39    17    37    1
    40    17    38    1
    41    18    39    1
    42    18    40    1
    43    19    41    1
    44    19    42    1
    45    20    43    1
    46    20    44    1
    47    22    45    1
