@<TRIPOS>MOLECULE
ChEBML403741
 36 39 0 0 0
SMALL
USER_CHARGES

@<TRIPOS>ATOM
      1 C         -12.2870   -4.9347    1.6167 C.ar    1  LIG1       -0.0600
      2 C          -0.5711    0.0392   -4.4389 C.ar    1  LIG1       -0.0600
      3 C         -11.8087   -5.1764    0.3267 C.ar    1  LIG1       -0.0602
      4 C          -1.1968    1.2749   -4.5612 C.ar    1  LIG1       -0.0610
      5 C         -11.6321   -4.0409    2.4733 C.ar    1  LIG1       -0.0344
      6 C          -1.0620   -0.9207   -3.5490 C.ar    1  LIG1       -0.0352
      7 C         -10.6619   -4.5357   -0.1540 C.ar    1  LIG1       -0.0385
      8 C          -2.3267    1.5847   -3.8001 C.ar    1  LIG1       -0.0459
      9 C         -10.4783   -3.3886    2.0068 C.ar    1  LIG1        0.0862
     10 C          -2.2024   -0.6334   -2.7679 C.ar    1  LIG1        0.0798
     11 C         -10.0261   -3.6499    0.7165 C.ar    1  LIG1        0.0573
     12 C          -2.8144    0.6159   -2.9082 C.ar    1  LIG1        0.0408
     13 C          -8.7306   -2.1877    1.7552 C.ar    1  LIG1        0.1162
     14 C          -3.8369   -0.8873   -1.3082 C.ar    1  LIG1        0.1657
     15 C          -5.8232   -0.7765    0.2484 C.2     1  LIG1        0.3042
     16 C          -7.6047   -1.2527    1.9361 C.3     1  LIG1        0.0688
     17 N          -9.6613   -2.4780    2.6365 N.ar    1  LIG1       -0.2342
     18 N          -2.7992   -1.4830   -1.8478 N.ar    1  LIG1       -0.2252
     19 N          -8.9072   -2.8683    0.5826 N.ar    1  LIG1       -0.3000
     20 N          -4.7171   -1.4056   -0.3299 N.am    1  LIG1       -0.2478
     21 N          -6.4322   -1.6270    1.1746 N.am    1  LIG1       -0.2919
     22 O          -6.2320    0.3562    0.0045 O.2     1  LIG1       -0.2538
     23 S          -4.1709    0.7012   -1.8475 S.2     1  LIG1       -0.0519
     24 H         -13.1813   -5.4476    1.9615 H       1  LIG1        0.0623
     25 H           0.3065   -0.1841   -5.0393 H       1  LIG1        0.0623
     26 H         -12.3366   -5.8766   -0.3161 H       1  LIG1        0.0623
     27 H          -0.8025    2.0112   -5.2572 H       1  LIG1        0.0623
     28 H         -12.0127   -3.8596    3.4732 H       1  LIG1        0.0646
     29 H          -0.5648   -1.8826   -3.4609 H       1  LIG1        0.0646
     30 H         -10.2899   -4.7212   -1.1552 H       1  LIG1        0.0643
     31 H          -2.8108    2.5510   -3.9017 H       1  LIG1        0.0635
     32 H          -7.8683   -0.2246    1.6281 H       1  LIG1        0.0549
     33 H          -7.2849   -1.1802    2.9913 H       1  LIG1        0.0549
     34 H          -8.3199   -2.8076   -0.2387 H       1  LIG1        0.1541
     35 H          -4.5175   -2.3509   -0.0126 H       1  LIG1        0.1594
     36 H          -6.0347   -2.5485    1.3198 H       1  LIG1        0.1515
@<TRIPOS>BOND
     1     1     3   ar
     2     1     5   ar
     3     2     4   ar
     4     2     6   ar
     5     3     7   ar
     6     4     8   ar
     7     5     9   ar
     8     6    10   ar
     9     7    11   ar
    10     8    12   ar
    11     9    11   ar
    12     9    17   ar
    13    10    12   ar
    14    10    18   ar
    15    11    19   ar
    16    12    23   ar
    17    13    16    1
    18    13    17   ar
    19    13    19   ar
    20    14    18   ar
    21    14    20    1
    22    14    23   ar
    23    15    20   am
    24    15    21   am
    25    15    22    2
    26    16    21    1
    27     1    24    1
    28     2    25    1
    29     3    26    1
    30     4    27    1
    31     5    28    1
    32     6    29    1
    33     7    30    1
    34     8    31    1
    35    16    32    1
    36    16    33    1
    37    19    34    1
    38    20    35    1
    39    21    36    1
