@<TRIPOS>MOLECULE
ChEBML208607
 47 50 0 0 0
SMALL
USER_CHARGES

@<TRIPOS>ATOM
      1 C          -1.4816    1.3380   -3.4538 C.ar    1  LIG1       -0.0622
      2 C          -2.8456    1.6286   -3.4291 C.ar    1  LIG1       -0.0620
      3 C          -1.0337    0.0631   -3.1075 C.ar    1  LIG1       -0.0620
      4 C         -11.4334   -5.2043   -0.2447 C.ar    1  LIG1       -0.0578
      5 C          -3.7618    0.6445   -3.0579 C.ar    1  LIG1       -0.0590
      6 C          -1.9500   -0.9210   -2.7363 C.ar    1  LIG1       -0.0590
      7 C         -10.2756   -4.4668   -0.5081 C.ar    1  LIG1       -0.0400
      8 C         -12.0918   -5.0954    0.9786 C.ar    1  LIG1       -0.0313
      9 C          -9.6929   -2.5516    2.4982 C.ar    1  LIG1       -0.0236
     10 C         -10.4440   -3.4892    1.7355 C.ar    1  LIG1        0.0278
     11 C          -3.3140   -0.6303   -2.7115 C.ar    1  LIG1       -0.0477
     12 C          -9.8051   -3.6184    0.5005 C.ar    1  LIG1        0.0404
     13 C         -11.6098   -4.2426    1.9783 C.ar    1  LIG1        0.0805
     14 C          -8.6321   -2.1377    1.7259 C.ar    1  LIG1        0.0948
     15 C          -7.6003   -1.2004    2.0605 C.2     1  LIG1        0.2598
     16 C          -5.5418   -2.7961   -0.4120 C.3     1  LIG1       -0.0341
     17 C          -5.0922   -0.3131   -0.3520 C.3     1  LIG1       -0.0341
     18 C          -5.8741   -2.7443    1.0781 C.3     1  LIG1        0.0147
     19 C          -5.4261   -0.3207    1.1377 C.3     1  LIG1        0.0147
     20 C          -4.5594   -1.6816   -0.8062 C.3     1  LIG1       -0.0344
     21 C          -4.3014   -1.6918   -2.3110 C.3     1  LIG1       -0.0249
     22 N          -8.7086   -2.7865    0.5227 N.ar    1  LIG1       -0.3100
     23 N          -6.3561   -1.4138    1.4525 N.am    1  LIG1       -0.2967
     24 O          -7.8260   -0.2755    2.8387 O.2     1  LIG1       -0.2702
     25 O         -12.2794   -4.1582    3.1694 O.3     1  LIG1       -0.3602
     26 H          -0.7684    2.1040   -3.7442 H       1  LIG1        0.0622
     27 H          -3.1946    2.6209   -3.6997 H       1  LIG1        0.0623
     28 H           0.0280   -0.1639   -3.1277 H       1  LIG1        0.0623
     29 H         -11.8259   -5.8716   -1.0078 H       1  LIG1        0.0624
     30 H          -4.8226    0.8802   -3.0413 H       1  LIG1        0.0625
     31 H          -1.5919   -1.9115   -2.4679 H       1  LIG1        0.0625
     32 H          -9.7635   -4.5533   -1.4606 H       1  LIG1        0.0643
     33 H         -12.9900   -5.6826    1.1541 H       1  LIG1        0.0650
     34 H          -9.9085   -2.2174    3.5044 H       1  LIG1        0.0652
     35 H          -5.1181   -3.7767   -0.6585 H       1  LIG1        0.0285
     36 H          -6.4686   -2.6902   -0.9907 H       1  LIG1        0.0285
     37 H          -5.9947   -0.0602   -0.9234 H       1  LIG1        0.0285
     38 H          -4.3498    0.4670   -0.5573 H       1  LIG1        0.0285
     39 H          -6.6179   -3.5106    1.3179 H       1  LIG1        0.0469
     40 H          -4.9813   -2.9529    1.6793 H       1  LIG1        0.0469
     41 H          -4.5195   -0.4822    1.7331 H       1  LIG1        0.0469
     42 H          -5.8324    0.6523    1.4243 H       1  LIG1        0.0469
     43 H          -3.6042   -1.8673   -0.2972 H       1  LIG1        0.0307
     44 H          -5.2461   -1.5433   -2.8439 H       1  LIG1        0.0319
     45 H          -3.9316   -2.6779   -2.6109 H       1  LIG1        0.0319
     46 H          -8.0560   -2.6730   -0.2410 H       1  LIG1        0.1529
     47 H         -13.0505   -4.7429    3.1547 H       1  LIG1        0.2182
@<TRIPOS>BOND
     1     1     2   ar
     2     1     3   ar
     3     2     5   ar
     4     3     6   ar
     5     4     7   ar
     6     4     8   ar
     7     5    11   ar
     8     6    11   ar
     9     7    12   ar
    10     8    13   ar
    11     9    10   ar
    12     9    14   ar
    13    10    12   ar
    14    10    13   ar
    15    11    21    1
    16    12    22   ar
    17    13    25    1
    18    14    15    1
    19    14    22   ar
    20    15    23   am
    21    15    24    2
    22    16    18    1
    23    16    20    1
    24    17    19    1
    25    17    20    1
    26    18    23    1
    27    19    23    1
    28    20    21    1
    29     1    26    1
    30     2    27    1
    31     3    28    1
    32     4    29    1
    33     5    30    1
    34     6    31    1
    35     7    32    1
    36     8    33    1
    37     9    34    1
    38    16    35    1
    39    16    36    1
    40    17    37    1
    41    17    38    1
    42    18    39    1
    43    18    40    1
    44    19    41    1
    45    19    42    1
    46    20    43    1
    47    21    44    1
    48    21    45    1
    49    22    46    1
    50    25    47    1
