@<TRIPOS>MOLECULE
ChEBML350456
 59 63 0 0 0
SMALL
USER_CHARGES

@<TRIPOS>ATOM
      1 C         -11.7603   -5.5315    0.7247 C.ar    1  LIG1       -0.0601
      2 C         -12.4951   -4.8458    1.6898 C.ar    1  LIG1       -0.0581
      3 C         -10.4890   -5.0945    0.3415 C.ar    1  LIG1       -0.0402
      4 C          -9.8842   -2.1433    2.3339 C.ar    1  LIG1       -0.0269
      5 C         -10.6986   -3.2390    1.9326 C.ar    1  LIG1        0.0012
      6 C         -11.9781   -3.6985    2.3025 C.ar    1  LIG1       -0.0336
      7 C          -9.9849   -3.9463    0.9626 C.ar    1  LIG1        0.0381
      8 C          -8.7137   -2.2055    1.6136 C.ar    1  LIG1        0.0841
      9 C          -7.5852   -1.3486    1.6447 C.ar    1  LIG1        0.2202
     10 C          -5.7438   -0.4818    1.2744 C.ar    1  LIG1        0.1589
     11 C          -3.2957    0.2981   -3.8821 C.3     1  LIG1       -0.0501
     12 C          -3.5851    1.1290   -2.6238 C.3     1  LIG1       -0.0499
     13 C          -1.3208    0.4347   -2.5596 C.3     1  LIG1       -0.0473
     14 C          -2.5277   -1.6249   -2.4790 C.3     1  LIG1       -0.0473
     15 C          -2.0713   -0.5373   -3.4698 C.3     1  LIG1       -0.0409
     16 C          -2.5218    0.6328   -1.6294 C.3     1  LIG1       -0.0383
     17 C          -2.7880   -0.8253   -1.1856 C.3     1  LIG1       -0.0379
     18 C         -13.9412   -0.7310    4.7707 C.3     1  LIG1       -0.0457
     19 C         -15.9621   -0.8131    3.3181 C.3     1  LIG1       -0.0457
     20 C         -12.8137   -3.0033    3.3304 C.3     1  LIG1        0.0123
     21 C          -4.3784   -0.2418    0.6811 C.3     1  LIG1        0.0102
     22 C          -4.1530   -1.0911   -0.5717 C.3     1  LIG1       -0.0429
     23 C         -13.9621   -2.1821    2.7470 C.3     1  LIG1       -0.0307
     24 N          -6.5285   -1.5314    0.8940 N.ar    1  LIG1       -0.2028
     25 N          -6.2613    0.3222    2.2079 N.ar    1  LIG1       -0.1113
     26 N          -8.7839   -3.2961    0.7889 N.ar    1  LIG1       -0.3108
     27 N         -14.7690   -1.5784    3.8360 N.4     1  LIG1        0.2420
     28 O          -7.5084   -0.2638    2.4592 O.2     1  LIG1       -0.1898
     29 H         -12.1810   -6.4201    0.2611 H       1  LIG1        0.0623
     30 H         -13.4815   -5.2136    1.9635 H       1  LIG1        0.0626
     31 H          -9.9177   -5.6290   -0.4098 H       1  LIG1        0.0642
     32 H         -10.1326   -1.3913    3.0716 H       1  LIG1        0.0651
     33 H          -4.1496   -0.3227   -4.1711 H       1  LIG1        0.0269
     34 H          -3.0533    0.9588   -4.7221 H       1  LIG1        0.0269
     35 H          -3.4367    2.1935   -2.8414 H       1  LIG1        0.0270
     36 H          -4.6116    1.0076   -2.2694 H       1  LIG1        0.0270
     37 H          -0.4561   -0.0175   -2.0623 H       1  LIG1        0.0272
     38 H          -1.0112    1.3528   -3.0701 H       1  LIG1        0.0272
     39 H          -3.4063   -2.1706   -2.8380 H       1  LIG1        0.0272
     40 H          -1.7234   -2.3506   -2.3109 H       1  LIG1        0.0272
     41 H          -1.5039   -0.9277   -4.3169 H       1  LIG1        0.0303
     42 H          -2.3513    1.3172   -0.7955 H       1  LIG1        0.0306
     43 H          -2.0271   -1.1053   -0.4441 H       1  LIG1        0.0306
     44 H         -13.5227    0.0940    4.1913 H       1  LIG1        0.0777
     45 H         -14.5999   -0.3624    5.5594 H       1  LIG1        0.0777
     46 H         -13.1510   -1.3619    5.1823 H       1  LIG1        0.0777
     47 H         -15.5904    0.0100    2.7051 H       1  LIG1        0.0777
     48 H         -16.5689   -1.5007    2.7261 H       1  LIG1        0.0777
     49 H         -16.5192   -0.4401    4.1797 H       1  LIG1        0.0777
     50 H         -13.2419   -3.7566    4.0078 H       1  LIG1        0.0370
     51 H         -12.1881   -2.3613    3.9674 H       1  LIG1        0.0370
     52 H          -4.2631    0.8218    0.4348 H       1  LIG1        0.0350
     53 H          -3.6051   -0.4671    1.4269 H       1  LIG1        0.0350
     54 H          -4.2345   -2.1569   -0.3247 H       1  LIG1        0.0274
     55 H          -4.9295   -0.8787   -1.3166 H       1  LIG1        0.0274
     56 H         -14.6449   -2.8164    2.1738 H       1  LIG1        0.0818
     57 H         -13.6147   -1.3596    2.1146 H       1  LIG1        0.0818
     58 H          -8.0615   -3.5878    0.1444 H       1  LIG1        0.1529
     59 H         -15.1510   -2.3488    4.4109 H       1  LIG1        0.1997
@<TRIPOS>BOND
     1     1     2   ar
     2     1     3   ar
     3     2     6   ar
     4     3     7   ar
     5     4     5   ar
     6     4     8   ar
     7     5     6   ar
     8     5     7   ar
     9     6    20    1
    10     7    26   ar
    11     8     9    1
    12     8    26   ar
    13     9    24   ar
    14     9    28   ar
    15    10    21    1
    16    10    24   ar
    17    10    25   ar
    18    11    12    1
    19    11    15    1
    20    12    16    1
    21    13    15    1
    22    13    16    1
    23    14    15    1
    24    14    17    1
    25    16    17    1
    26    17    22    1
    27    18    27    1
    28    19    27    1
    29    20    23    1
    30    21    22    1
    31    23    27    1
    32    25    28   ar
    33     1    29    1
    34     2    30    1
    35     3    31    1
    36     4    32    1
    37    11    33    1
    38    11    34    1
    39    12    35    1
    40    12    36    1
    41    13    37    1
    42    13    38    1
    43    14    39    1
    44    14    40    1
    45    15    41    1
    46    16    42    1
    47    17    43    1
    48    18    44    1
    49    18    45    1
    50    18    46    1
    51    19    47    1
    52    19    48    1
    53    19    49    1
    54    20    50    1
    55    20    51    1
    56    21    52    1
    57    21    53    1
    58    22    54    1
    59    22    55    1
    60    23    56    1
    61    23    57    1
    62    26    58    1
    63    27    59    1
