@<TRIPOS>MOLECULE
ChEBML248917
 51 54 0 0 0
SMALL
USER_CHARGES

@<TRIPOS>ATOM
      1 C         -12.5898   -4.6222    1.5731 C.ar    1  LIG1       -0.0615
      2 C         -11.7838   -5.4797    0.8345 C.ar    1  LIG1       -0.0603
      3 C          -2.4520    0.7264   -3.7851 C.ar    1  LIG1       -0.0411
      4 C         -12.0904   -3.4527    2.0675 C.ar    1  LIG1       -0.0530
      5 C         -10.4663   -5.1657    0.5875 C.ar    1  LIG1       -0.0402
      6 C          -1.7415    0.5320   -2.6080 C.ar    1  LIG1       -0.0266
      7 C          -9.9535   -2.0003    2.1951 C.ar    1  LIG1       -0.0262
      8 C          -3.7492    0.2642   -3.8768 C.ar    1  LIG1        0.0293
      9 C         -10.7528   -3.1104    1.8297 C.ar    1  LIG1       -0.0022
     10 C          -9.9338   -3.9777    1.0807 C.ar    1  LIG1        0.0378
     11 C          -2.3675   -0.1252   -1.5590 C.ar    1  LIG1        0.1156
     12 C          -8.7104   -2.1997    1.6843 C.ar    1  LIG1        0.0947
     13 C          -3.6798   -0.5696   -1.7256 C.ar    1  LIG1        0.1506
     14 C          -7.5706   -1.2823    1.8325 C.2     1  LIG1        0.2599
     15 C          -4.4698   -0.2675    0.4077 C.3     1  LIG1        0.0289
     16 C          -5.6674   -1.5690   -1.1626 C.3     1  LIG1        0.0289
     17 C          -5.1496   -0.9426    1.6032 C.3     1  LIG1        0.0303
     18 C          -6.4263   -2.3300   -0.0708 C.3     1  LIG1        0.0303
     19 C           0.0640    0.6497    0.9229 C.3     1  LIG1       -0.0384
     20 C           0.5473   -0.5198   -1.2313 C.3     1  LIG1       -0.0384
     21 C          -0.4626    0.3521   -0.4825 C.3     1  LIG1        0.0588
     22 N          -4.3216   -0.3584   -2.8630 N.ar    1  LIG1       -0.2386
     23 N          -8.6895   -3.3988    0.9985 N.ar    1  LIG1       -0.3101
     24 N          -4.3207   -1.2360   -0.6845 N.pl3   1  LIG1       -0.3105
     25 N          -6.4304   -1.5086    1.1504 N.am    1  LIG1       -0.2936
     26 O          -7.6568   -0.3194    2.5707 O.2     1  LIG1       -0.2701
     27 O          -1.7101   -0.3383   -0.3875 O.3     1  LIG1       -0.3398
     28 H         -13.6212   -4.8841    1.7578 H       1  LIG1        0.0623
     29 H         -12.1947   -6.4017    0.4506 H       1  LIG1        0.0623
     30 H          -1.9940    1.2346   -4.6206 H       1  LIG1        0.0640
     31 H         -12.7244   -2.7929    2.6412 H       1  LIG1        0.0629
     32 H          -9.8476   -5.8392    0.0130 H       1  LIG1        0.0642
     33 H          -0.7254    0.8846   -2.5113 H       1  LIG1        0.0652
     34 H         -10.2743   -1.1481    2.7757 H       1  LIG1        0.0651
     35 H          -4.3042    0.4144   -4.7911 H       1  LIG1        0.0840
     36 H          -3.4868    0.0963    0.7069 H       1  LIG1        0.0485
     37 H          -5.0791    0.5705    0.0691 H       1  LIG1        0.0485
     38 H          -6.2036   -0.6515   -1.4053 H       1  LIG1        0.0485
     39 H          -5.5924   -2.1919   -2.0540 H       1  LIG1        0.0485
     40 H          -4.5116   -1.7388    1.9869 H       1  LIG1        0.0486
     41 H          -5.3300   -0.2065    2.3866 H       1  LIG1        0.0486
     42 H          -5.9297   -3.2798    0.1274 H       1  LIG1        0.0486
     43 H          -7.4512   -2.5115   -0.3945 H       1  LIG1        0.0486
     44 H           1.0154    1.1764    0.8505 H       1  LIG1        0.0257
     45 H          -0.6555    1.2709    1.4565 H       1  LIG1        0.0257
     46 H           0.2068   -0.2861    1.4630 H       1  LIG1        0.0257
     47 H           1.4988    0.0069   -1.3038 H       1  LIG1        0.0257
     48 H           0.6902   -1.4557   -0.6912 H       1  LIG1        0.0257
     49 H           0.1722   -0.7317   -2.2326 H       1  LIG1        0.0257
     50 H          -0.6054    1.2881   -1.0227 H       1  LIG1        0.0603
     51 H          -7.9223   -3.7721    0.5370 H       1  LIG1        0.1529
@<TRIPOS>BOND
     1     1     2   ar
     2     1     4   ar
     3     2     5   ar
     4     3     6   ar
     5     3     8   ar
     6     4     9   ar
     7     5    10   ar
     8     6    11   ar
     9     7     9   ar
    10     7    12   ar
    11     8    22   ar
    12     9    10   ar
    13    10    23   ar
    14    11    13   ar
    15    11    27    1
    16    12    14    1
    17    12    23   ar
    18    13    22   ar
    19    13    24    1
    20    14    25   am
    21    14    26    2
    22    15    17    1
    23    15    24    1
    24    16    18    1
    25    16    24    1
    26    17    25    1
    27    18    25    1
    28    19    21    1
    29    20    21    1
    30    21    27    1
    31     1    28    1
    32     2    29    1
    33     3    30    1
    34     4    31    1
    35     5    32    1
    36     6    33    1
    37     7    34    1
    38     8    35    1
    39    15    36    1
    40    15    37    1
    41    16    38    1
    42    16    39    1
    43    17    40    1
    44    17    41    1
    45    18    42    1
    46    18    43    1
    47    19    44    1
    48    19    45    1
    49    19    46    1
    50    20    47    1
    51    20    48    1
    52    20    49    1
    53    21    50    1
    54    23    51    1
