@<TRIPOS>MOLECULE
ChEBML1160787
 43 47 0 0 0
SMALL
USER_CHARGES

@<TRIPOS>ATOM
      1 C         -12.6132   -5.3706    1.6435 C.ar    1  LIG1       -0.0616
      2 C          -2.4885    0.9255   -3.3164 C.ar    1  LIG1       -0.0616
      3 C         -11.4214   -6.0699    1.4783 C.ar    1  LIG1       -0.0616
      4 C          -3.5305    1.5430   -2.6389 C.ar    1  LIG1       -0.0616
      5 C         -12.5922   -3.9877    1.8258 C.ar    1  LIG1       -0.0544
      6 C          -2.1028   -0.3650   -2.9626 C.ar    1  LIG1       -0.0544
      7 C         -10.2039   -5.3889    1.4948 C.ar    1  LIG1       -0.0543
      8 C          -4.1927    0.8685   -1.6107 C.ar    1  LIG1       -0.0540
      9 C         -11.3359   -1.8939    2.0274 C.ar    1  LIG1       -0.0536
     10 C          -2.3348   -2.3497   -1.5802 C.ar    1  LIG1       -0.0517
     11 C         -10.1185   -1.2128    2.0439 C.ar    1  LIG1       -0.0507
     12 C          -2.9502   -3.0451   -0.5460 C.ar    1  LIG1       -0.0302
     13 C          -8.9475   -3.2951    1.6964 C.ar    1  LIG1       -0.0435
     14 C         -11.3759   -3.2858    1.8451 C.ar    1  LIG1       -0.0183
     15 C          -2.7555   -1.0571   -1.9291 C.ar    1  LIG1       -0.0179
     16 C         -10.1639   -3.9970    1.6771 C.ar    1  LIG1       -0.0177
     17 C          -3.8337   -0.4458   -1.2326 C.ar    1  LIG1       -0.0125
     18 C          -8.9266   -1.9121    1.8787 C.ar    1  LIG1        0.0190
     19 C          -4.4828   -1.1774   -0.2014 C.ar    1  LIG1       -0.0079
     20 C          -4.0098   -2.4526    0.1302 C.ar    1  LIG1        0.0892
     21 C          -5.7338   -2.8079    1.8339 C.2     1  LIG1        0.2773
     22 C          -7.6484   -1.1962    1.8988 C.2     1  LIG1        0.1758
     23 C          -5.6326   -0.6328    0.6034 C.3     1  LIG1       -0.0050
     24 C          -6.5309   -1.7691    1.0810 C.3     1  LIG1        0.1128
     25 O          -6.1130   -3.3448    2.8689 O.2     1  LIG1       -0.2652
     26 O          -7.4349   -0.1716    2.5386 O.2     1  LIG1       -0.2932
     27 O          -4.5517   -3.1876    1.2077 O.3     1  LIG1       -0.2773
     28 H         -13.5607   -5.9018    1.6321 H       1  LIG1        0.0623
     29 H          -1.9724    1.4478   -4.1162 H       1  LIG1        0.0623
     30 H         -11.4385   -7.1466    1.3360 H       1  LIG1        0.0623
     31 H          -3.8313    2.5518   -2.9065 H       1  LIG1        0.0623
     32 H         -13.5360   -3.4618    1.9545 H       1  LIG1        0.0629
     33 H          -1.2784   -0.8269   -3.5027 H       1  LIG1        0.0629
     34 H          -9.2848   -5.9560    1.3621 H       1  LIG1        0.0629
     35 H          -4.9960    1.3985   -1.1053 H       1  LIG1        0.0629
     36 H         -12.2557   -1.3273    2.1576 H       1  LIG1        0.0629
     37 H          -1.5073   -2.8231   -2.1054 H       1  LIG1        0.0630
     38 H         -10.1144   -0.1351    2.1868 H       1  LIG1        0.0630
     39 H          -2.5981   -4.0351   -0.2722 H       1  LIG1        0.0651
     40 H          -8.0090   -3.8326    1.5690 H       1  LIG1        0.0637
     41 H          -5.2283   -0.0645    1.4508 H       1  LIG1        0.0330
     42 H          -6.2456    0.0507    0.0062 H       1  LIG1        0.0330
     43 H          -6.9942   -2.2812    0.2275 H       1  LIG1        0.0498
@<TRIPOS>BOND
     1     1     3   ar
     2     1     5   ar
     3     2     4   ar
     4     2     6   ar
     5     3     7   ar
     6     4     8   ar
     7     5    14   ar
     8     6    15   ar
     9     7    16   ar
    10     8    17   ar
    11     9    11   ar
    12     9    14   ar
    13    10    12   ar
    14    10    15   ar
    15    11    18   ar
    16    12    20   ar
    17    13    16   ar
    18    13    18   ar
    19    14    16   ar
    20    15    17   ar
    21    17    19   ar
    22    18    22    1
    23    19    20   ar
    24    19    23    1
    25    20    27    1
    26    21    24    1
    27    21    25    2
    28    21    27    1
    29    22    24    1
    30    22    26    2
    31    23    24    1
    32     1    28    1
    33     2    29    1
    34     3    30    1
    35     4    31    1
    36     5    32    1
    37     6    33    1
    38     7    34    1
    39     8    35    1
    40     9    36    1
    41    10    37    1
    42    11    38    1
    43    12    39    1
    44    13    40    1
    45    23    41    1
    46    23    42    1
    47    24    43    1
