@<TRIPOS>MOLECULE
ChEBML418040
 53 57 0 0 0
SMALL
USER_CHARGES

@<TRIPOS>ATOM
      1 C          -2.7445   -2.1765    2.8056 C.ar    1  LIG1       -0.0600
      2 C          -4.1135   -1.9077    2.7382 C.ar    1  LIG1       -0.0602
      3 C          -1.9097   -1.9494    1.7041 C.ar    1  LIG1       -0.0344
      4 C          -4.6977   -1.4035    1.5715 C.ar    1  LIG1       -0.0383
      5 C         -10.2903   -5.3011    0.9561 C.ar    1  LIG1       -0.0376
      6 C         -11.6444   -5.6440    1.0091 C.ar    1  LIG1       -0.0299
      7 C         -12.2745   -3.3308    1.3955 C.ar    1  LIG1       -0.0226
      8 C         -10.2186   -1.7273    1.4739 C.ar    1  LIG1       -0.0261
      9 C         -10.9157   -2.9613    1.3463 C.ar    1  LIG1        0.0004
     10 C          -2.4798   -1.4434    0.5237 C.ar    1  LIG1        0.0864
     11 C          -9.9569   -3.9530    1.1281 C.ar    1  LIG1        0.0380
     12 C          -3.8472   -1.1852    0.4871 C.ar    1  LIG1        0.0603
     13 C         -12.6229   -4.6756    1.2252 C.ar    1  LIG1        0.0753
     14 C          -8.8751   -1.9889    1.3337 C.ar    1  LIG1        0.0947
     15 C          -2.8731   -0.7008   -1.4393 C.ar    1  LIG1        0.1014
     16 C          -7.7827   -1.0695    1.3856 C.2     1  LIG1        0.2598
     17 C          -6.1262   -1.4847   -1.9034 C.3     1  LIG1       -0.0166
     18 C          -6.7999   -2.1154   -0.6903 C.3     1  LIG1        0.0164
     19 C          -6.2940    0.1887   -0.2130 C.3     1  LIG1        0.0336
     20 C          -5.3472   -0.2969   -1.3176 C.3     1  LIG1        0.0463
     21 C          -2.1567    1.1600   -2.9594 C.3     1  LIG1       -0.0585
     22 C         -14.2286   -6.4248    1.0917 C.3     1  LIG1        0.0422
     23 C          -2.7508   -0.2470   -2.8399 C.3     1  LIG1        0.0008
     24 N          -1.8915   -1.1362   -0.6817 N.ar    1  LIG1       -0.2357
     25 N          -8.7272   -3.3339    1.1252 N.ar    1  LIG1       -0.3101
     26 N          -4.0708   -0.7114   -0.7801 N.ar    1  LIG1       -0.2824
     27 N          -7.0070   -1.0021    0.2327 N.am    1  LIG1       -0.2948
     28 O          -7.5536   -0.3924    2.3888 O.2     1  LIG1       -0.2702
     29 O         -13.9351   -5.0411    1.2717 O.3     1  LIG1       -0.3493
     30 H          -2.3194   -2.5666    3.7266 H       1  LIG1        0.0623
     31 H          -4.7378   -2.0940    3.6087 H       1  LIG1        0.0623
     32 H          -0.8472   -2.1610    1.7671 H       1  LIG1        0.0646
     33 H          -5.7603   -1.1943    1.5203 H       1  LIG1        0.0643
     34 H          -9.5293   -6.0556    0.7874 H       1  LIG1        0.0643
     35 H         -11.9306   -6.6851    0.8784 H       1  LIG1        0.0651
     36 H         -13.0436   -2.5816    1.5630 H       1  LIG1        0.0657
     37 H         -10.6572   -0.7540    1.6497 H       1  LIG1        0.0651
     38 H          -5.5010   -2.2004   -2.4462 H       1  LIG1        0.0302
     39 H          -6.8930   -1.1085   -2.5920 H       1  LIG1        0.0302
     40 H          -7.7485   -2.5989   -0.9414 H       1  LIG1        0.0470
     41 H          -6.1460   -2.8440   -0.1988 H       1  LIG1        0.0470
     42 H          -5.7888    0.6704    0.6303 H       1  LIG1        0.0489
     43 H          -7.0436    0.8796   -0.6151 H       1  LIG1        0.0489
     44 H          -5.1291    0.4792   -2.0559 H       1  LIG1        0.0527
     45 H          -2.7493    1.8819   -2.3872 H       1  LIG1        0.0235
     46 H          -2.1319    1.4923   -4.0019 H       1  LIG1        0.0235
     47 H          -1.1328    1.1834   -2.5715 H       1  LIG1        0.0235
     48 H         -15.3086   -6.5798    1.1512 H       1  LIG1        0.0535
     49 H         -13.7227   -7.0091    1.8644 H       1  LIG1        0.0535
     50 H         -13.8714   -6.7389    0.1080 H       1  LIG1        0.0535
     51 H          -2.1242   -0.9424   -3.4304 H       1  LIG1        0.0343
     52 H          -3.7340   -0.2557   -3.3485 H       1  LIG1        0.0343
     53 H          -7.8447   -3.8074    0.9884 H       1  LIG1        0.1529
@<TRIPOS>BOND
     1     1     2   ar
     2     1     3   ar
     3     2     4   ar
     4     3    10   ar
     5     4    12   ar
     6     5     6   ar
     7     5    11   ar
     8     6    13   ar
     9     7     9   ar
    10     7    13   ar
    11     8     9   ar
    12     8    14   ar
    13     9    11   ar
    14    10    12   ar
    15    10    24   ar
    16    11    25   ar
    17    12    26   ar
    18    13    29    1
    19    14    16    1
    20    14    25   ar
    21    15    23    1
    22    15    24   ar
    23    15    26   ar
    24    16    27   am
    25    16    28    2
    26    17    18    1
    27    17    20    1
    28    18    27    1
    29    19    20    1
    30    19    27    1
    31    20    26    1
    32    21    23    1
    33    22    29    1
    34     1    30    1
    35     2    31    1
    36     3    32    1
    37     4    33    1
    38     5    34    1
    39     6    35    1
    40     7    36    1
    41     8    37    1
    42    17    38    1
    43    17    39    1
    44    18    40    1
    45    18    41    1
    46    19    42    1
    47    19    43    1
    48    20    44    1
    49    21    45    1
    50    21    46    1
    51    21    47    1
    52    22    48    1
    53    22    49    1
    54    22    50    1
    55    23    51    1
    56    23    52    1
    57    25    53    1
