@<TRIPOS>MOLECULE
ChEBML204907
 87 91 0 0 0
SMALL
USER_CHARGES

@<TRIPOS>ATOM
      1 C          -2.3668    1.3473   -2.8891 C.ar    1  LIG1       -0.0418
      2 C         -10.6694   -5.1848    2.5821 C.ar    1  LIG1       -0.0383
      3 C          -1.7301    0.2161   -2.3909 C.ar    1  LIG1       -0.0360
      4 C         -11.9977   -5.5152    2.2984 C.ar    1  LIG1       -0.0377
      5 C         -12.3317   -3.4127    1.1299 C.ar    1  LIG1       -0.0304
      6 C         -10.1905   -1.9230    1.1067 C.ar    1  LIG1       -0.0261
      7 C          -3.7301    1.2732   -3.1256 C.ar    1  LIG1        0.0292
      8 C         -10.9958   -3.0579    1.4039 C.ar    1  LIG1       -0.0003
      9 C         -10.1971   -3.9504    2.1222 C.ar    1  LIG1        0.0379
     10 C         -12.8178   -4.6443    1.5836 C.ar    1  LIG1        0.0453
     11 C          -2.4658   -0.9385   -2.1481 C.ar    1  LIG1        0.0674
     12 C          -8.9420   -2.1441    1.6407 C.ar    1  LIG1        0.0947
     13 C          -3.8246   -0.9103   -2.4176 C.ar    1  LIG1        0.1414
     14 C          -7.7966   -1.2910    1.6003 C.2     1  LIG1        0.2598
     15 C          -4.4892   -1.5673    0.2245 C.3     1  LIG1       -0.0185
     16 C          -5.9822   -3.3976   -0.6839 C.3     1  LIG1       -0.0185
     17 C          -5.7165   -0.6621    0.3199 C.3     1  LIG1        0.0162
     18 C          -7.1762   -2.4517   -0.5457 C.3     1  LIG1        0.0162
     19 C         -16.9425   -6.2611    0.6895 C.3     1  LIG1        0.0657
     20 C         -16.8172   -3.9887   -0.2680 C.3     1  LIG1        0.0657
     21 C         -18.4298   -6.3245    0.3790 C.3     1  LIG1       -0.0170
     22 C         -18.3030   -4.0278   -0.5898 C.3     1  LIG1       -0.0170
     23 C          -4.6540   -2.6480   -0.8514 C.3     1  LIG1        0.0271
     24 C          -4.7820   -4.1207   -3.4705 C.3     1  LIG1       -0.0494
     25 C          -0.7885   -4.2433   -1.9918 C.3     1  LIG1       -0.0444
     26 C          -0.9448   -2.5589   -3.8429 C.3     1  LIG1       -0.0444
     27 C           0.5816   -2.1484   -1.8961 C.3     1  LIG1       -0.0444
     28 C         -20.4904   -4.9265    0.2081 C.3     1  LIG1       -0.0453
     29 C          -5.2812   -2.7304   -3.2697 C.3     1  LIG1        0.0104
     30 C          -0.7591   -2.7491   -2.3338 C.3     1  LIG1        0.0228
     31 N          -4.4780    0.1695   -2.9018 N.ar    1  LIG1       -0.2394
     32 N          -8.9557   -3.3696    2.2510 N.ar    1  LIG1       -0.3101
     33 N          -6.9350   -1.4619    0.5055 N.am    1  LIG1       -0.2966
     34 N         -16.2610   -5.3721   -0.2952 N.3     1  LIG1       -0.2549
     35 N          -1.8233   -2.0848   -1.6439 N.pl3   1  LIG1       -0.3369
     36 N         -14.1820   -5.0142    1.3074 N.pl3   1  LIG1       -0.2474
     37 N          -4.5723   -2.0682   -2.1769 N.pl3   1  LIG1       -0.3114
     38 N         -19.0006   -4.9262    0.4040 N.4     1  LIG1        0.2462
     39 O          -7.6001   -0.4599    2.4889 O.2     1  LIG1       -0.2702
     40 O         -14.1839   -6.8716   -0.4687 O.2     1  LIG1       -0.4642
     41 O         -14.0385   -4.4823   -1.2426 O.2     1  LIG1       -0.4642
     42 S         -14.5505   -5.4744   -0.3145 S.O2    1  LIG1       -0.1184
     43 H          -1.8136    2.2585   -3.0859 H       1  LIG1        0.0639
     44 H         -10.0317   -5.8634    3.1385 H       1  LIG1        0.0643
     45 H          -0.6614    0.2465   -2.1962 H       1  LIG1        0.0644
     46 H         -12.3860   -6.4699    2.6465 H       1  LIG1        0.0643
     47 H         -12.9737   -2.7355    0.5727 H       1  LIG1        0.0650
     48 H         -10.4965   -1.0407    0.5602 H       1  LIG1        0.0651
     49 H          -4.2742    2.1277   -3.5142 H       1  LIG1        0.0840
     50 H          -3.5992   -0.9589    0.0249 H       1  LIG1        0.0302
     51 H          -4.3358   -2.0578    1.1944 H       1  LIG1        0.0302
     52 H          -5.9202   -4.0154    0.2214 H       1  LIG1        0.0302
     53 H          -6.1500   -4.0785   -1.5268 H       1  LIG1        0.0302
     54 H          -5.5741    0.0495    1.1373 H       1  LIG1        0.0470
     55 H          -5.8474   -0.0730   -0.5949 H       1  LIG1        0.0470
     56 H          -7.3504   -1.9045   -1.4793 H       1  LIG1        0.0470
     57 H          -8.0810   -3.0306   -0.3350 H       1  LIG1        0.0470
     58 H         -16.7711   -5.8864    1.7054 H       1  LIG1        0.0538
     59 H         -16.5226   -7.2704    0.6192 H       1  LIG1        0.0538
     60 H         -16.3081   -3.3775   -1.0211 H       1  LIG1        0.0538
     61 H         -16.6419   -3.5396    0.7165 H       1  LIG1        0.0538
     62 H         -18.6234   -6.7417   -0.6158 H       1  LIG1        0.0831
     63 H         -18.9603   -6.9110    1.1361 H       1  LIG1        0.0831
     64 H         -18.7461   -3.0306   -0.5013 H       1  LIG1        0.0831
     65 H         -18.4951   -4.4309   -1.5906 H       1  LIG1        0.0831
     66 H          -3.8306   -3.3654   -0.7558 H       1  LIG1        0.0506
     67 H          -3.7155   -4.1207   -3.7204 H       1  LIG1        0.0246
     68 H          -4.9422   -4.7265   -2.5719 H       1  LIG1        0.0246
     69 H          -5.3231   -4.5936   -4.2986 H       1  LIG1        0.0246
     70 H          -0.6573   -4.4061   -0.9157 H       1  LIG1        0.0252
     71 H          -1.7384   -4.7017   -2.2880 H       1  LIG1        0.0252
     72 H           0.0195   -4.7811   -2.5015 H       1  LIG1        0.0252
     73 H          -0.9274   -1.4964   -4.1124 H       1  LIG1        0.0252
     74 H          -1.9082   -2.9615   -4.1765 H       1  LIG1        0.0252
     75 H          -0.1540   -3.0634   -4.4090 H       1  LIG1        0.0252
     76 H           0.6300   -1.0784   -2.1293 H       1  LIG1        0.0252
     77 H           0.7388   -2.2665   -0.8183 H       1  LIG1        0.0252
     78 H           1.4194   -2.6307   -2.4131 H       1  LIG1        0.0252
     79 H         -20.6967   -5.3333   -0.7835 H       1  LIG1        0.0777
     80 H         -20.9299   -5.5513    0.9880 H       1  LIG1        0.0777
     81 H         -20.8382   -3.8948    0.2892 H       1  LIG1        0.0777
     82 H          -6.3466   -2.7377   -3.0204 H       1  LIG1        0.0466
     83 H          -5.1349   -2.1313   -4.1732 H       1  LIG1        0.0466
     84 H          -8.1700   -3.7902    2.7282 H       1  LIG1        0.1529
     85 H          -2.1424   -2.4361   -0.7592 H       1  LIG1        0.1471
     86 H         -14.5914   -5.6246    2.0278 H       1  LIG1        0.1719
     87 H         -18.8290   -4.5399    1.3426 H       1  LIG1        0.2001
@<TRIPOS>BOND
     1     1     3   ar
     2     1     7   ar
     3     2     4   ar
     4     2     9   ar
     5     3    11   ar
     6     4    10   ar
     7     5     8   ar
     8     5    10   ar
     9     6     8   ar
    10     6    12   ar
    11     7    31   ar
    12     8     9   ar
    13     9    32   ar
    14    10    36    1
    15    11    13   ar
    16    11    35    1
    17    12    14    1
    18    12    32   ar
    19    13    31   ar
    20    13    37    1
    21    14    33   am
    22    14    39    2
    23    15    17    1
    24    15    23    1
    25    16    18    1
    26    16    23    1
    27    17    33    1
    28    18    33    1
    29    19    21    1
    30    19    34    1
    31    20    22    1
    32    20    34    1
    33    21    38    1
    34    22    38    1
    35    23    37    1
    36    24    29    1
    37    25    30    1
    38    26    30    1
    39    27    30    1
    40    28    38    1
    41    29    37    1
    42    30    35    1
    43    34    42    1
    44    36    42    1
    45    40    42    2
    46    41    42    2
    47     1    43    1
    48     2    44    1
    49     3    45    1
    50     4    46    1
    51     5    47    1
    52     6    48    1
    53     7    49    1
    54    15    50    1
    55    15    51    1
    56    16    52    1
    57    16    53    1
    58    17    54    1
    59    17    55    1
    60    18    56    1
    61    18    57    1
    62    19    58    1
    63    19    59    1
    64    20    60    1
    65    20    61    1
    66    21    62    1
    67    21    63    1
    68    22    64    1
    69    22    65    1
    70    23    66    1
    71    24    67    1
    72    24    68    1
    73    24    69    1
    74    25    70    1
    75    25    71    1
    76    25    72    1
    77    26    73    1
    78    26    74    1
    79    26    75    1
    80    27    76    1
    81    27    77    1
    82    27    78    1
    83    28    79    1
    84    28    80    1
    85    28    81    1
    86    29    82    1
    87    29    83    1
    88    32    84    1
    89    35    85    1
    90    36    86    1
    91    38    87    1
