@<TRIPOS>MOLECULE
ChEBML212904
 49 52 0 0 0
SMALL
USER_CHARGES

@<TRIPOS>ATOM
      1 C          -0.2105   -4.0960   -1.1812 C.ar    1  LIG1       -0.0622
      2 C         -12.4153   -4.7240    1.1250 C.ar    1  LIG1       -0.0615
      3 C           0.2658   -2.8623   -1.6245 C.ar    1  LIG1       -0.0620
      4 C          -1.5752   -4.3785   -1.2392 C.ar    1  LIG1       -0.0620
      5 C         -11.4319   -5.6856    0.9014 C.ar    1  LIG1       -0.0603
      6 C         -12.0688   -3.4023    1.4285 C.ar    1  LIG1       -0.0530
      7 C          -0.6226   -1.9109   -2.1258 C.ar    1  LIG1       -0.0588
      8 C          -2.4637   -3.4271   -1.7405 C.ar    1  LIG1       -0.0588
      9 C         -10.0747   -5.3589    0.9736 C.ar    1  LIG1       -0.0402
     10 C         -10.0106   -1.8397    1.7837 C.ar    1  LIG1       -0.0262
     11 C         -10.7070   -3.0494    1.5067 C.ar    1  LIG1       -0.0022
     12 C          -1.9873   -2.1933   -2.1838 C.ar    1  LIG1       -0.0428
     13 C          -9.7432   -4.0339    1.2780 C.ar    1  LIG1        0.0378
     14 C          -8.6628   -2.1083    1.7194 C.ar    1  LIG1        0.0947
     15 C          -7.5655   -1.2088    1.9254 C.2     1  LIG1        0.2602
     16 C          -6.4019   -2.1598   -0.0984 C.3     1  LIG1        0.0539
     17 C          -5.0601   -1.1576    1.7044 C.3     1  LIG1        0.0539
     18 C          -5.6907   -1.3049   -1.1370 C.3     1  LIG1       -0.0180
     19 C          -4.3171   -0.2902    0.6976 C.3     1  LIG1       -0.0180
     20 C          -2.9441   -1.1697   -2.7230 C.3     1  LIG1        0.0116
     21 C          -3.4998   -0.2255   -1.6616 C.3     1  LIG1       -0.0301
     22 N          -8.5115   -3.4342    1.4135 N.ar    1  LIG1       -0.3101
     23 N          -6.3951   -1.4950    1.2110 N.am    1  LIG1       -0.2863
     24 N          -4.2941   -0.9930   -0.6424 N.4     1  LIG1        0.2485
     25 O          -7.6776   -0.2522    2.6901 O.2     1  LIG1       -0.2701
     26 H           0.4815   -4.8372   -0.7922 H       1  LIG1        0.0622
     27 H         -13.4641   -5.0020    1.0624 H       1  LIG1        0.0623
     28 H           1.3286   -2.6426   -1.5805 H       1  LIG1        0.0623
     29 H          -1.9463   -5.3394   -0.8952 H       1  LIG1        0.0623
     30 H         -11.7235   -6.7061    0.6675 H       1  LIG1        0.0623
     31 H         -12.8458   -2.6624    1.5999 H       1  LIG1        0.0629
     32 H          -0.2425   -0.9522   -2.4688 H       1  LIG1        0.0625
     33 H          -3.5253   -3.6559   -1.7817 H       1  LIG1        0.0625
     34 H          -9.3093   -6.1079    0.8000 H       1  LIG1        0.0642
     35 H         -10.4529   -0.8777    2.0060 H       1  LIG1        0.0651
     36 H          -7.4183   -2.3721   -0.4388 H       1  LIG1        0.0525
     37 H          -5.8935   -3.1239    0.0239 H       1  LIG1        0.0525
     38 H          -4.5252   -2.0995    1.8751 H       1  LIG1        0.0525
     39 H          -5.1205   -0.6369    2.6651 H       1  LIG1        0.0525
     40 H          -5.5925   -1.8420   -2.0857 H       1  LIG1        0.0831
     41 H          -6.2023   -0.3496   -1.2996 H       1  LIG1        0.0831
     42 H          -4.8113    0.6768    0.5511 H       1  LIG1        0.0831
     43 H          -3.2788   -0.1342    1.0072 H       1  LIG1        0.0831
     44 H          -2.4228   -0.5696   -3.4807 H       1  LIG1        0.0370
     45 H          -3.7701   -1.6616   -3.2530 H       1  LIG1        0.0370
     46 H          -4.1891    0.4973   -2.1078 H       1  LIG1        0.0818
     47 H          -2.7160    0.3097   -1.1172 H       1  LIG1        0.0818
     48 H          -7.6252   -3.9078    1.3033 H       1  LIG1        0.1529
     49 H          -3.8087   -1.8909   -0.5087 H       1  LIG1        0.2004
@<TRIPOS>BOND
     1     1     3   ar
     2     1     4   ar
     3     2     5   ar
     4     2     6   ar
     5     3     7   ar
     6     4     8   ar
     7     5     9   ar
     8     6    11   ar
     9     7    12   ar
    10     8    12   ar
    11     9    13   ar
    12    10    11   ar
    13    10    14   ar
    14    11    13   ar
    15    12    20    1
    16    13    22   ar
    17    14    15    1
    18    14    22   ar
    19    15    23   am
    20    15    25    2
    21    16    18    1
    22    16    23    1
    23    17    19    1
    24    17    23    1
    25    18    24    1
    26    19    24    1
    27    20    21    1
    28    21    24    1
    29     1    26    1
    30     2    27    1
    31     3    28    1
    32     4    29    1
    33     5    30    1
    34     6    31    1
    35     7    32    1
    36     8    33    1
    37     9    34    1
    38    10    35    1
    39    16    36    1
    40    16    37    1
    41    17    38    1
    42    17    39    1
    43    18    40    1
    44    18    41    1
    45    19    42    1
    46    19    43    1
    47    20    44    1
    48    20    45    1
    49    21    46    1
    50    21    47    1
    51    22    48    1
    52    24    49    1
