@<TRIPOS>MOLECULE
ChEBML300263
 40 42 0 0 0
SMALL
USER_CHARGES

@<TRIPOS>ATOM
      1 C         -10.1731   -4.9610   -0.0233 C.ar    1  LIG1       -0.0387
      2 C         -11.3920   -5.5611    0.3056 C.ar    1  LIG1       -0.0416
      3 C         -11.7566   -3.9697    2.1032 C.ar    1  LIG1       -0.0343
      4 C          -9.8171   -2.2393    2.3242 C.ar    1  LIG1       -0.0262
      5 C         -10.5313   -3.3482    1.7902 C.ar    1  LIG1       -0.0007
      6 C          -9.7694   -3.8572    0.7362 C.ar    1  LIG1        0.0379
      7 C         -12.1731   -5.0747    1.3520 C.ar    1  LIG1        0.0413
      8 C          -8.6570   -2.0994    1.5979 C.ar    1  LIG1        0.0945
      9 C          -7.5792   -1.0911    1.7675 C.2     1  LIG1        0.2576
     10 C          -4.3869   -0.6551   -0.1542 C.2     1  LIG1        0.2316
     11 C          -1.8771    0.4537   -3.4315 C.3     1  LIG1       -0.0498
     12 C          -3.2896    1.0588   -3.2915 C.3     1  LIG1       -0.0344
     13 C          -2.1832   -0.3610   -2.1574 C.3     1  LIG1       -0.0344
     14 C          -3.6766   -0.2189   -2.5179 C.3     1  LIG1        0.0250
     15 C          -5.6106    0.9930   -1.5874 C.3     1  LIG1        0.0031
     16 C          -5.3800   -0.2970    0.9373 C.3     1  LIG1        0.0887
     17 N          -8.6373   -3.0796    0.6423 N.ar    1  LIG1       -0.3101
     18 N          -6.5078   -1.1827    0.8846 N.am    1  LIG1       -0.3013
     19 N          -4.5523    0.0140   -1.3720 N.am    1  LIG1       -0.3005
     20 O          -7.6713   -0.2598    2.6669 O.2     1  LIG1       -0.2704
     21 O          -3.4982   -1.4867    0.0487 O.2     1  LIG1       -0.2756
     22 CL        -13.6705   -5.8404    1.7263 Cl      1  LIG1       -0.0843
     23 H          -9.5656   -5.3411   -0.8378 H       1  LIG1        0.0643
     24 H         -11.7216   -6.4209   -0.2740 H       1  LIG1        0.0639
     25 H         -12.3645   -3.5895    2.9199 H       1  LIG1        0.0645
     26 H         -10.1232   -1.6130    3.1516 H       1  LIG1        0.0651
     27 H          -1.7396   -0.1576   -4.3310 H       1  LIG1        0.0268
     28 H          -1.0480    1.1615   -3.3541 H       1  LIG1        0.0268
     29 H          -3.3227    1.9694   -2.6818 H       1  LIG1        0.0285
     30 H          -3.8192    1.2450   -4.2298 H       1  LIG1        0.0285
     31 H          -1.7772   -1.3759   -2.1366 H       1  LIG1        0.0285
     32 H          -1.9047    0.1497   -1.2280 H       1  LIG1        0.0285
     33 H          -4.0716   -1.0258   -3.1428 H       1  LIG1        0.0506
     34 H          -5.2588    1.9921   -1.3174 H       1  LIG1        0.0433
     35 H          -6.4819    0.7488   -0.9736 H       1  LIG1        0.0433
     36 H          -5.9125    0.9982   -2.6382 H       1  LIG1        0.0433
     37 H          -4.9184   -0.4079    1.9220 H       1  LIG1        0.0567
     38 H          -5.7532    0.7203    0.7943 H       1  LIG1        0.0567
     39 H          -7.8999   -3.2159   -0.0356 H       1  LIG1        0.1529
     40 H          -6.4794   -1.9428    0.2057 H       1  LIG1        0.1503
@<TRIPOS>BOND
     1     1     2   ar
     2     1     6   ar
     3     2     7   ar
     4     3     5   ar
     5     3     7   ar
     6     4     5   ar
     7     4     8   ar
     8     5     6   ar
     9     6    17   ar
    10     7    22    1
    11     8     9    1
    12     8    17   ar
    13     9    18   am
    14     9    20    2
    15    10    16    1
    16    10    19   am
    17    10    21    2
    18    11    12    1
    19    11    13    1
    20    12    14    1
    21    13    14    1
    22    14    19    1
    23    15    19    1
    24    16    18    1
    25     1    23    1
    26     2    24    1
    27     3    25    1
    28     4    26    1
    29    11    27    1
    30    11    28    1
    31    12    29    1
    32    12    30    1
    33    13    31    1
    34    13    32    1
    35    14    33    1
    36    15    34    1
    37    15    35    1
    38    15    36    1
    39    16    37    1
    40    16    38    1
    41    17    39    1
    42    18    40    1
