@<TRIPOS>MOLECULE
ChEBML205733
 69 72 0 0 0
SMALL
USER_CHARGES

@<TRIPOS>ATOM
      1 C         -10.0562   -5.4817    1.3416 C.ar    1  LIG1       -0.0383
      2 C         -11.3777   -5.9336    1.3989 C.ar    1  LIG1       -0.0377
      3 C          -1.5864   -2.3527   -4.1224 C.ar    1  LIG1       -0.0330
      4 C          -2.1368   -2.6594   -5.3619 C.ar    1  LIG1       -0.0049
      5 C         -12.1984   -3.6712    1.7234 C.ar    1  LIG1       -0.0304
      6 C         -10.2820   -1.9021    1.7669 C.ar    1  LIG1       -0.0261
      7 C         -10.8743   -3.1922    1.6689 C.ar    1  LIG1       -0.0003
      8 C          -9.8359   -4.1066    1.4796 C.ar    1  LIG1        0.0379
      9 C         -12.4338   -5.0441    1.5868 C.ar    1  LIG1        0.0437
     10 C          -2.3601   -2.4786   -2.9740 C.ar    1  LIG1        0.0674
     11 C          -8.9208   -2.0554    1.6378 C.ar    1  LIG1        0.0947
     12 C          -3.6684   -2.9115   -3.1176 C.ar    1  LIG1        0.1447
     13 C          -3.4551   -3.0845   -5.3985 C.ar    1  LIG1        0.2143
     14 C          -7.9046   -1.0445    1.6693 C.2     1  LIG1        0.2598
     15 C          -4.7978   -1.5284   -0.0649 C.3     1  LIG1       -0.0185
     16 C          -6.7387   -2.3103   -1.4884 C.3     1  LIG1       -0.0185
     17 C          -5.7191   -0.4760    0.5504 C.3     1  LIG1        0.0162
     18 C          -7.6169   -1.2507   -0.8211 C.3     1  LIG1        0.0162
     19 C          -5.2506   -1.9366   -1.4725 C.3     1  LIG1        0.0271
     20 C          -4.9893   -5.4144   -2.0729 C.3     1  LIG1       -0.0494
     21 C           0.4803   -2.9176   -1.6224 C.3     1  LIG1       -0.0470
     22 C          -0.3387   -0.9909   -0.2213 C.3     1  LIG1       -0.0470
     23 C         -14.2697   -6.4076   -0.8510 C.3     1  LIG1        0.0225
     24 C          -4.4758   -4.3004   -1.2256 C.3     1  LIG1        0.0104
     25 C          -0.4554   -1.7195   -1.5521 C.3     1  LIG1        0.0142
     26 N          -4.2379   -3.2189   -4.3045 N.ar    1  LIG1       -0.2026
     27 N          -8.6615   -3.3885    1.4648 N.ar    1  LIG1       -0.3101
     28 N          -7.1163   -0.9293    0.5165 N.am    1  LIG1       -0.2966
     29 N          -1.8048   -2.1681   -1.7183 N.pl3   1  LIG1       -0.3393
     30 N         -13.7734   -5.5376    1.6407 N.pl3   1  LIG1       -0.2633
     31 N          -4.4536   -3.0412   -1.9670 N.pl3   1  LIG1       -0.3113
     32 O          -7.7599   -0.3365    2.6645 O.2     1  LIG1       -0.2702
     33 O         -16.1742   -5.5522    0.7009 O.2     1  LIG1       -0.4814
     34 O         -14.5396   -3.8790   -0.2338 O.2     1  LIG1       -0.4814
     35 F          -3.9988   -3.3833   -6.5885 F       1  LIG1       -0.1848
     36 S         -14.8220   -5.1882    0.3205 S.O2    1  LIG1       -0.1957
     37 H          -9.2347   -6.1749    1.1952 H       1  LIG1        0.0643
     38 H         -11.5721   -6.9989    1.2940 H       1  LIG1        0.0643
     39 H          -0.5546   -2.0157   -4.0641 H       1  LIG1        0.0645
     40 H          -1.5509   -2.5697   -6.2693 H       1  LIG1        0.0671
     41 H         -13.0241   -2.9798    1.8699 H       1  LIG1        0.0650
     42 H         -10.8005   -0.9642    1.9160 H       1  LIG1        0.0651
     43 H          -3.7697   -1.1481   -0.0873 H       1  LIG1        0.0302
     44 H          -4.8003   -2.4189    0.5768 H       1  LIG1        0.0302
     45 H          -6.8641   -3.2578   -0.9483 H       1  LIG1        0.0302
     46 H          -7.0835   -2.4779   -2.5156 H       1  LIG1        0.0302
     47 H          -5.3896   -0.2643    1.5708 H       1  LIG1        0.0470
     48 H          -5.6676    0.4688   -0.0025 H       1  LIG1        0.0470
     49 H          -7.6186   -0.3223   -1.4036 H       1  LIG1        0.0470
     50 H          -8.6509   -1.6067   -0.7745 H       1  LIG1        0.0470
     51 H          -5.0934   -1.0896   -2.1501 H       1  LIG1        0.0506
     52 H          -6.0117   -5.2107   -2.4089 H       1  LIG1        0.0246
     53 H          -4.3462   -5.5688   -2.9462 H       1  LIG1        0.0246
     54 H          -5.0032   -6.3455   -1.4937 H       1  LIG1        0.0246
     55 H           0.2692   -3.6252   -0.8140 H       1  LIG1        0.0249
     56 H           0.3795   -3.4485   -2.5756 H       1  LIG1        0.0249
     57 H           1.5250   -2.6006   -1.5313 H       1  LIG1        0.0249
     58 H          -0.5640   -1.6657    0.6118 H       1  LIG1        0.0249
     59 H          -1.0381   -0.1497   -0.1747 H       1  LIG1        0.0249
     60 H           0.6737   -0.6020   -0.0651 H       1  LIG1        0.0249
     61 H         -14.8612   -6.3028   -1.7619 H       1  LIG1        0.0442
     62 H         -13.2131   -6.2317   -1.0587 H       1  LIG1        0.0442
     63 H         -14.4142   -7.3962   -0.4128 H       1  LIG1        0.0442
     64 H          -3.4546   -4.5103   -0.8937 H       1  LIG1        0.0466
     65 H          -5.1101   -4.1580   -0.3458 H       1  LIG1        0.0466
     66 H          -0.2263   -1.0264   -2.3688 H       1  LIG1        0.0497
     67 H          -7.7422   -3.7910    1.3438 H       1  LIG1        0.1529
     68 H          -2.3994   -2.2743   -0.9166 H       1  LIG1        0.1469
     69 H         -13.8564   -6.4972    2.0142 H       1  LIG1        0.1702
@<TRIPOS>BOND
     1     1     2   ar
     2     1     8   ar
     3     2     9   ar
     4     3     4   ar
     5     3    10   ar
     6     4    13   ar
     7     5     7   ar
     8     5     9   ar
     9     6     7   ar
    10     6    11   ar
    11     7     8   ar
    12     8    27   ar
    13     9    30    1
    14    10    12   ar
    15    10    29    1
    16    11    14    1
    17    11    27   ar
    18    12    26   ar
    19    12    31    1
    20    13    26   ar
    21    13    35    1
    22    14    28   am
    23    14    32    2
    24    15    17    1
    25    15    19    1
    26    16    18    1
    27    16    19    1
    28    17    28    1
    29    18    28    1
    30    19    31    1
    31    20    24    1
    32    21    25    1
    33    22    25    1
    34    23    36    1
    35    24    31    1
    36    25    29    1
    37    30    36    1
    38    33    36    2
    39    34    36    2
    40     1    37    1
    41     2    38    1
    42     3    39    1
    43     4    40    1
    44     5    41    1
    45     6    42    1
    46    15    43    1
    47    15    44    1
    48    16    45    1
    49    16    46    1
    50    17    47    1
    51    17    48    1
    52    18    49    1
    53    18    50    1
    54    19    51    1
    55    20    52    1
    56    20    53    1
    57    20    54    1
    58    21    55    1
    59    21    56    1
    60    21    57    1
    61    22    58    1
    62    22    59    1
    63    22    60    1
    64    23    61    1
    65    23    62    1
    66    23    63    1
    67    24    64    1
    68    24    65    1
    69    25    66    1
    70    27    67    1
    71    29    68    1
    72    30    69    1
