@<TRIPOS>MOLECULE
ChEBML961503
 37 40 0 0 0
SMALL
USER_CHARGES

@<TRIPOS>ATOM
      1 C         -12.3126   -5.0053    1.3573 C.ar    1  LIG1       -0.0615
      2 C         -11.3028   -5.8664    0.9202 C.ar    1  LIG1       -0.0596
      3 C         -12.0284   -3.6798    1.7136 C.ar    1  LIG1       -0.0522
      4 C          -9.9757   -5.4374    0.8228 C.ar    1  LIG1       -0.0306
      5 C         -10.0239   -2.0056    1.8800 C.ar    1  LIG1       -0.0191
      6 C          -7.6623   -0.2094    2.6417 C.ar    1  LIG1        0.0072
      7 C         -10.7006   -3.2270    1.6233 C.ar    1  LIG1        0.0080
      8 C          -9.7241   -4.1150    1.1836 C.ar    1  LIG1        0.0895
      9 C          -7.6251   -1.2232    1.7073 C.ar    1  LIG1        0.1033
     10 C          -8.6987   -2.2266    1.5840 C.ar    1  LIG1        0.1090
     11 C          -5.7224   -0.2505    1.2142 C.ar    1  LIG1        0.1576
     12 C          -2.3093    0.5122   -3.5524 C.3     1  LIG1       -0.0271
     13 C          -2.4944   -0.6015   -2.5525 C.3     1  LIG1       -0.0230
     14 C          -3.5580    1.3398   -3.3339 C.3     1  LIG1        0.0472
     15 C          -3.1176    0.1419   -1.3837 C.3     1  LIG1        0.0730
     16 C          -3.9653   -0.7405   -0.4882 C.3     1  LIG1        0.0366
     17 N          -6.5138   -1.2481    0.8876 N.ar    1  LIG1       -0.2235
     18 N          -4.5070    0.0253    0.5883 N.pl3   1  LIG1       -0.3211
     19 O          -8.5064   -3.5032    1.1609 O.2     1  LIG1       -0.3075
     20 O          -3.9306    1.1798   -1.9569 O.3     1  LIG1       -0.3765
     21 S          -6.2526    0.7568    2.4984 S.2     1  LIG1       -0.0602
     22 H         -13.3355   -5.3675    1.4214 H       1  LIG1        0.0623
     23 H         -11.5531   -6.8892    0.6494 H       1  LIG1        0.0623
     24 H         -12.8236   -3.0220    2.0513 H       1  LIG1        0.0630
     25 H          -9.1881   -6.0998    0.4837 H       1  LIG1        0.0650
     26 H         -10.4588   -1.0821    2.2380 H       1  LIG1        0.0658
     27 H          -8.4189    0.0080    3.3830 H       1  LIG1        0.0726
     28 H          -1.4205    1.0999   -3.2936 H       1  LIG1        0.0291
     29 H          -2.2019    0.1654   -4.5834 H       1  LIG1        0.0291
     30 H          -3.1865   -1.3494   -2.9587 H       1  LIG1        0.0294
     31 H          -1.5616   -1.1064   -2.2867 H       1  LIG1        0.0294
     32 H          -3.4027    2.3998   -3.5532 H       1  LIG1        0.0566
     33 H          -4.3879    0.9738   -3.9473 H       1  LIG1        0.0566
     34 H          -2.3385    0.6330   -0.7883 H       1  LIG1        0.0620
     35 H          -3.3476   -1.5339   -0.0792 H       1  LIG1        0.0493
     36 H          -4.7820   -1.1634   -1.0641 H       1  LIG1        0.0493
     37 H          -3.9816    0.8299    0.9347 H       1  LIG1        0.1486
@<TRIPOS>BOND
     1     1     2   ar
     2     1     3   ar
     3     2     4   ar
     4     3     7   ar
     5     4     8   ar
     6     5     7   ar
     7     5    10   ar
     8     6     9   ar
     9     6    21   ar
    10     7     8   ar
    11     8    19   ar
    12     9    10    1
    13     9    17   ar
    14    10    19   ar
    15    11    17   ar
    16    11    18    1
    17    11    21   ar
    18    12    13    1
    19    12    14    1
    20    13    15    1
    21    14    20    1
    22    15    16    1
    23    15    20    1
    24    16    18    1
    25     1    22    1
    26     2    23    1
    27     3    24    1
    28     4    25    1
    29     5    26    1
    30     6    27    1
    31    12    28    1
    32    12    29    1
    33    13    30    1
    34    13    31    1
    35    14    32    1
    36    14    33    1
    37    15    34    1
    38    16    35    1
    39    16    36    1
    40    18    37    1
