@<TRIPOS>MOLECULE
ChEBML418048
 49 53 0 0 0
SMALL
USER_CHARGES

@<TRIPOS>ATOM
      1 C          -2.7471   -1.8403    2.6232 C.ar    1  LIG1       -0.0600
      2 C          -4.1327   -1.6648    2.6460 C.ar    1  LIG1       -0.0602
      3 C          -1.9877   -1.4424    1.5158 C.ar    1  LIG1       -0.0344
      4 C          -4.8090   -1.0869    1.5664 C.ar    1  LIG1       -0.0383
      5 C         -10.1532   -5.2926    0.7969 C.ar    1  LIG1       -0.0391
      6 C         -11.4767   -5.7355    0.8744 C.ar    1  LIG1       -0.0461
      7 C         -12.2390   -3.5247    1.5288 C.ar    1  LIG1       -0.0387
      8 C         -10.2937   -1.7937    1.6822 C.ar    1  LIG1       -0.0262
      9 C         -10.9124   -3.0553    1.4575 C.ar    1  LIG1       -0.0011
     10 C          -2.6507   -0.8602    0.4223 C.ar    1  LIG1        0.0864
     11 C          -9.9021   -3.9484    1.0939 C.ar    1  LIG1        0.0379
     12 C          -4.0323   -0.6984    0.4744 C.ar    1  LIG1        0.0603
     13 C         -12.5052   -4.8668    1.2345 C.ar    1  LIG1        0.0182
     14 C          -8.9448   -1.9425    1.4552 C.ar    1  LIG1        0.0947
     15 C          -3.1941    0.0493   -1.4316 C.ar    1  LIG1        0.1014
     16 C          -7.9149   -0.9574    1.5551 C.2     1  LIG1        0.2598
     17 C          -6.4074   -0.9138   -1.8301 C.3     1  LIG1       -0.0166
     18 C          -6.9738   -1.7120   -0.6616 C.3     1  LIG1        0.0164
     19 C          -6.5983    0.5613    0.0336 C.3     1  LIG1        0.0336
     20 C          -5.6799    0.2606   -1.1573 C.3     1  LIG1        0.0463
     21 C          -1.8417    0.4451   -3.5055 C.3     1  LIG1       -0.0585
     22 C          -3.1752    0.6519   -2.7804 C.3     1  LIG1        0.0008
     23 N          -2.1477   -0.3899   -0.7691 N.ar    1  LIG1       -0.2357
     24 N          -8.7184   -3.2454    1.1007 N.ar    1  LIG1       -0.3101
     25 N          -4.3525   -0.1144   -0.7243 N.ar    1  LIG1       -0.2824
     26 N          -7.2063   -0.7168    0.3823 N.am    1  LIG1       -0.2948
     27 O          -7.6795   -0.3720    2.6132 O.2     1  LIG1       -0.2702
     28 BR        -14.2841   -5.5054    1.3241 Br      1  LIG1       -0.0508
     29 H          -2.2498   -2.2913    3.4780 H       1  LIG1        0.0623
     30 H          -4.6972   -1.9835    3.5190 H       1  LIG1        0.0623
     31 H          -0.9117   -1.5826    1.5085 H       1  LIG1        0.0646
     32 H          -5.8844   -0.9502    1.5853 H       1  LIG1        0.0643
     33 H          -9.3533   -5.9701    0.5176 H       1  LIG1        0.0643
     34 H         -11.6885   -6.7781    0.6473 H       1  LIG1        0.0635
     35 H         -13.0386   -2.8443    1.8106 H       1  LIG1        0.0641
     36 H         -10.7863   -0.8770    1.9782 H       1  LIG1        0.0651
     37 H          -5.7650   -1.5235   -2.4730 H       1  LIG1        0.0302
     38 H          -7.2323   -0.5249   -2.4401 H       1  LIG1        0.0302
     39 H          -7.8998   -2.2340   -0.9198 H       1  LIG1        0.0470
     40 H          -6.2482   -2.4384   -0.2796 H       1  LIG1        0.0470
     41 H          -6.0831    0.9891    0.8998 H       1  LIG1        0.0489
     42 H          -7.4121    1.2342   -0.2592 H       1  LIG1        0.0489
     43 H          -5.5526    1.1216   -1.8184 H       1  LIG1        0.0527
     44 H          -1.0111    0.8416   -2.9118 H       1  LIG1        0.0235
     45 H          -1.8361    0.9506   -4.4762 H       1  LIG1        0.0235
     46 H          -1.6539   -0.6203   -3.6767 H       1  LIG1        0.0235
     47 H          -3.9846    0.2388   -3.4124 H       1  LIG1        0.0343
     48 H          -3.3832    1.7381   -2.7341 H       1  LIG1        0.0343
     49 H          -7.8143   -3.6379    0.8763 H       1  LIG1        0.1529
@<TRIPOS>BOND
     1     1     2   ar
     2     1     3   ar
     3     2     4   ar
     4     3    10   ar
     5     4    12   ar
     6     5     6   ar
     7     5    11   ar
     8     6    13   ar
     9     7     9   ar
    10     7    13   ar
    11     8     9   ar
    12     8    14   ar
    13     9    11   ar
    14    10    12   ar
    15    10    23   ar
    16    11    24   ar
    17    12    25   ar
    18    13    28    1
    19    14    16    1
    20    14    24   ar
    21    15    22    1
    22    15    23   ar
    23    15    25   ar
    24    16    26   am
    25    16    27    2
    26    17    18    1
    27    17    20    1
    28    18    26    1
    29    19    20    1
    30    19    26    1
    31    20    25    1
    32    21    22    1
    33     1    29    1
    34     2    30    1
    35     3    31    1
    36     4    32    1
    37     5    33    1
    38     6    34    1
    39     7    35    1
    40     8    36    1
    41    17    37    1
    42    17    38    1
    43    18    39    1
    44    18    40    1
    45    19    41    1
    46    19    42    1
    47    20    43    1
    48    21    44    1
    49    21    45    1
    50    21    46    1
    51    22    47    1
    52    22    48    1
    53    24    49    1
