@<TRIPOS>MOLECULE
ChEBML1026876
 31 33 0 0 0
SMALL
USER_CHARGES

@<TRIPOS>ATOM
      1 C         -11.2953   -5.6934    1.0462 C.ar    1  LIG1       -0.0600
      2 C         -12.2432   -5.1616    1.9136 C.ar    1  LIG1       -0.0610
      3 C         -10.1047   -5.0078    0.7881 C.ar    1  LIG1       -0.0352
      4 C         -12.0282   -3.9339    2.5449 C.ar    1  LIG1       -0.0460
      5 C          -2.0529    0.4551   -3.1123 C.ar    1  LIG1        0.0000
      6 C          -9.8625   -3.7652    1.4129 C.ar    1  LIG1        0.0790
      7 C         -10.8303   -3.2506    2.2809 C.ar    1  LIG1        0.0400
      8 C          -2.6533    1.5331   -2.4963 C.ar    1  LIG1        0.0468
      9 C          -3.7834   -0.0746   -1.5225 C.ar    1  LIG1        0.1635
     10 C          -8.8479   -1.8915    1.9845 C.ar    1  LIG1        0.1355
     11 C          -5.6201   -0.3153    0.1803 C.2     1  LIG1        0.2279
     12 C          -2.3248    2.9532   -2.7309 C.3     1  LIG1       -0.0216
     13 C          -6.3872   -1.4220    0.8718 C.3     1  LIG1        0.0775
     14 N          -8.7331   -2.9755    1.2533 N.ar    1  LIG1       -0.2335
     15 N          -3.6461    1.2314   -1.5846 N.ar    1  LIG1       -0.2307
     16 N          -4.6844   -0.8133   -0.7186 N.am    1  LIG1       -0.2635
     17 O          -5.8453    0.8618    0.4501 O.2     1  LIG1       -0.2762
     18 S          -2.7506   -1.0005   -2.5328 S.2     1  LIG1       -0.0603
     19 S         -10.2849   -1.7363    2.8993 S.2     1  LIG1       -0.0609
     20 S          -7.5852   -0.6793    2.0102 S.3     1  LIG1       -0.0894
     21 H         -11.4800   -6.6501    0.5653 H       1  LIG1        0.0623
     22 H         -13.1638   -5.7072    2.1036 H       1  LIG1        0.0623
     23 H          -9.3708   -5.4344    0.1102 H       1  LIG1        0.0646
     24 H         -12.7733   -3.5253    3.2209 H       1  LIG1        0.0635
     25 H          -1.2632    0.4494   -3.8504 H       1  LIG1        0.0721
     26 H          -2.9380    3.3733   -3.5446 H       1  LIG1        0.0296
     27 H          -2.4922    3.5704   -1.8318 H       1  LIG1        0.0296
     28 H          -1.2647    3.0928   -3.0033 H       1  LIG1        0.0296
     29 H          -6.9122   -2.0140    0.1159 H       1  LIG1        0.0484
     30 H          -5.7232   -2.0926    1.4244 H       1  LIG1        0.0484
     31 H          -4.6421   -1.8260   -0.8093 H       1  LIG1        0.1577
@<TRIPOS>BOND
     1     1     2   ar
     2     1     3   ar
     3     2     4   ar
     4     3     6   ar
     5     4     7   ar
     6     5     8   ar
     7     5    18   ar
     8     6     7   ar
     9     6    14   ar
    10     7    19   ar
    11     8    12    1
    12     8    15   ar
    13     9    15   ar
    14     9    16    1
    15     9    18   ar
    16    10    14   ar
    17    10    19   ar
    18    10    20    1
    19    11    13    1
    20    11    16   am
    21    11    17    2
    22    13    20    1
    23     1    21    1
    24     2    22    1
    25     3    23    1
    26     4    24    1
    27     5    25    1
    28    12    26    1
    29    12    27    1
    30    12    28    1
    31    13    29    1
    32    13    30    1
    33    16    31    1
