@<TRIPOS>MOLECULE
ChEBML156699
 59 63 0 0 0
SMALL
USER_CHARGES

@<TRIPOS>ATOM
      1 C          -2.6358    0.4548   -3.3287 C.ar    1  LIG1       -0.0359
      2 C          -2.4760   -0.5444   -2.3560 C.ar    1  LIG1       -0.0238
      3 C         -12.2603   -3.6647    1.8392 C.ar    1  LIG1       -0.0162
      4 C         -10.0620   -4.9851    0.7086 C.ar    1  LIG1       -0.0024
      5 C          -3.6937    1.2080   -2.9551 C.ar    1  LIG1        0.0462
      6 C         -11.0153   -3.0262    1.7906 C.ar    1  LIG1        0.0431
      7 C          -9.9026   -3.6917    1.2200 C.ar    1  LIG1        0.0803
      8 C         -12.3954   -4.9246    1.3288 C.ar    1  LIG1        0.1057
      9 C         -11.2980   -5.5912    0.7677 C.ar    1  LIG1        0.1070
     10 C          -3.4616   -0.3527   -1.4306 C.ar    1  LIG1        0.1439
     11 C         -10.8258   -1.7184    2.3000 C.ar    1  LIG1        0.1282
     12 C          -8.5990   -1.8399    1.6745 C.ar    1  LIG1        0.2190
     13 C          -3.6865   -1.1648   -0.2304 C.2     1  LIG1        0.2696
     14 C          -5.5369   -4.0688    3.3483 C.3     1  LIG1       -0.0514
     15 C          -4.1327   -3.4645    3.3059 C.3     1  LIG1       -0.0514
     16 C          -6.5822   -2.9635    3.1750 C.3     1  LIG1       -0.0326
     17 C          -3.9161   -2.7519    1.9681 C.3     1  LIG1       -0.0326
     18 C          -7.1942   -0.7340    0.2455 C.3     1  LIG1        0.0306
     19 C          -5.8423   -0.0290    0.1029 C.3     1  LIG1        0.0308
     20 C          -6.3590   -2.2688    1.8320 C.3     1  LIG1        0.0442
     21 C          -4.9592   -1.6452    1.8154 C.3     1  LIG1        0.0444
     22 C         -14.5143   -4.6268    1.9899 C.3     1  LIG1        0.0424
     23 C         -10.1803   -7.2570   -0.2250 C.3     1  LIG1        0.0424
     24 N          -8.7189   -3.0588    1.1852 N.ar    1  LIG1       -0.2146
     25 N          -9.6178   -1.1800    2.2186 N.ar    1  LIG1       -0.1995
     26 N          -7.3619   -1.2221    1.6201 N.pl3   1  LIG1       -0.2935
     27 N          -4.7800   -0.9561    0.5292 N.am    1  LIG1       -0.2896
     28 N         -11.8729   -1.0225    2.8672 N.pl3   1  LIG1       -0.3426
     29 O          -2.8859   -2.0272    0.0796 O.2     1  LIG1       -0.2693
     30 O          -4.1886    0.7183   -1.8109 O.2     1  LIG1       -0.3126
     31 O         -13.6070   -5.5411    1.3710 O.3     1  LIG1       -0.3465
     32 O         -11.4556   -6.8461    0.2718 O.3     1  LIG1       -0.3465
     33 H          -2.0259    0.5970   -4.2086 H       1  LIG1        0.0645
     34 H          -1.7210   -1.3166   -2.3431 H       1  LIG1        0.0653
     35 H         -13.1115   -3.1614    2.2737 H       1  LIG1        0.0660
     36 H          -9.2221   -5.5043    0.2711 H       1  LIG1        0.0674
     37 H          -4.0770    2.0638   -3.4907 H       1  LIG1        0.0901
     38 H          -5.6892   -4.5645    4.3070 H       1  LIG1        0.0267
     39 H          -5.6426   -4.7969    2.5441 H       1  LIG1        0.0267
     40 H          -4.0215   -2.7484    4.1201 H       1  LIG1        0.0267
     41 H          -3.3933   -4.2573    3.4181 H       1  LIG1        0.0267
     42 H          -6.4818   -2.2375    3.9818 H       1  LIG1        0.0286
     43 H          -7.5808   -3.3997    3.1980 H       1  LIG1        0.0286
     44 H          -4.0220   -3.4675    1.1528 H       1  LIG1        0.0286
     45 H          -2.9170   -2.3166    1.9448 H       1  LIG1        0.0286
     46 H          -7.2378   -1.5760   -0.4453 H       1  LIG1        0.0486
     47 H          -7.9948   -0.0328    0.0101 H       1  LIG1        0.0486
     48 H          -5.6851    0.2536   -0.9381 H       1  LIG1        0.0486
     49 H          -5.8257    0.8607    0.7325 H       1  LIG1        0.0486
     50 H          -6.4343   -3.0078    1.0343 H       1  LIG1        0.0525
     51 H          -4.8568   -0.9300    2.6316 H       1  LIG1        0.0525
     52 H         -14.5663   -3.7115    1.4004 H       1  LIG1        0.0535
     53 H         -15.5043   -5.0795    2.0463 H       1  LIG1        0.0535
     54 H         -14.1644   -4.3923    2.9952 H       1  LIG1        0.0535
     55 H         -10.2575   -8.2639   -0.6353 H       1  LIG1        0.0535
     56 H          -9.8563   -6.5700   -1.0067 H       1  LIG1        0.0535
     57 H          -9.4544   -7.2508    0.5880 H       1  LIG1        0.0535
     58 H         -11.7299   -0.1275    3.2127 H       1  LIG1        0.1442
     59 H         -12.7525   -1.4280    2.9207 H       1  LIG1        0.1442
@<TRIPOS>BOND
     1     1     2   ar
     2     1     5   ar
     3     2    10   ar
     4     3     6   ar
     5     3     8   ar
     6     4     7   ar
     7     4     9   ar
     8     5    30   ar
     9     6     7   ar
    10     6    11   ar
    11     7    24   ar
    12     8     9   ar
    13     8    31    1
    14     9    32    1
    15    10    13    1
    16    10    30   ar
    17    11    25   ar
    18    11    28    1
    19    12    24   ar
    20    12    25   ar
    21    12    26    1
    22    13    27   am
    23    13    29    2
    24    14    15    1
    25    14    16    1
    26    15    17    1
    27    16    20    1
    28    17    21    1
    29    18    19    1
    30    18    26    1
    31    19    27    1
    32    20    21    1
    33    20    26    1
    34    21    27    1
    35    22    31    1
    36    23    32    1
    37     1    33    1
    38     2    34    1
    39     3    35    1
    40     4    36    1
    41     5    37    1
    42    14    38    1
    43    14    39    1
    44    15    40    1
    45    15    41    1
    46    16    42    1
    47    16    43    1
    48    17    44    1
    49    17    45    1
    50    18    46    1
    51    18    47    1
    52    19    48    1
    53    19    49    1
    54    20    50    1
    55    21    51    1
    56    22    52    1
    57    22    53    1
    58    22    54    1
    59    23    55    1
    60    23    56    1
    61    23    57    1
    62    28    58    1
    63    28    59    1
