@<TRIPOS>MOLECULE
ChEBML409602
 41 44 0 0 0
SMALL
USER_CHARGES

@<TRIPOS>ATOM
      1 C          -4.3960   -2.5614    0.3459 C.ar    1  LIG1       -0.0590
      2 C          -5.5673   -2.4705    1.0977 C.ar    1  LIG1       -0.0526
      3 C         -10.3187   -5.1971    0.5055 C.ar    1  LIG1       -0.0376
      4 C          -4.0100   -1.5017   -0.4750 C.ar    1  LIG1       -0.0318
      5 C         -11.6602   -5.5311    0.7114 C.ar    1  LIG1       -0.0299
      6 C         -12.0518   -3.4589    1.9154 C.ar    1  LIG1       -0.0223
      7 C          -5.9669   -0.2603    0.2077 C.ar    1  LIG1       -0.0223
      8 C         -10.7033   -3.1004    1.7207 C.ar    1  LIG1        0.0036
      9 C          -6.3528   -1.3199    1.0286 C.ar    1  LIG1        0.0042
     10 C          -9.9055   -1.9858    2.0831 C.ar    1  LIG1       -0.0134
     11 C          -9.8678   -3.9762    1.0199 C.ar    1  LIG1        0.0382
     12 C         -12.5151   -4.6769    1.4050 C.ar    1  LIG1        0.0753
     13 C          -4.7955   -0.3512   -0.5441 C.ar    1  LIG1        0.0752
     14 C          -8.6304   -2.1887    1.6015 C.ar    1  LIG1        0.0605
     15 C          -7.5763   -1.2243    1.8139 C.2     1  LIG1        0.0864
     16 C         -10.2099   -0.7400    2.8252 C.3     1  LIG1       -0.0055
     17 C          -8.9366   -0.2532    3.5355 C.3     1  LIG1        0.0439
     18 C         -14.6416   -4.1134    2.3082 C.3     1  LIG1        0.0422
     19 C          -3.2105    0.5238   -2.0861 C.3     1  LIG1        0.0422
     20 N          -7.7213   -0.2777    2.6876 N.2     1  LIG1       -0.2823
     21 N          -8.6151   -3.4004    0.9670 N.ar    1  LIG1       -0.3124
     22 O         -13.8182   -5.0301    1.5908 O.3     1  LIG1       -0.3493
     23 O          -4.4193    0.6830   -1.3449 O.3     1  LIG1       -0.3493
     24 H          -3.7844   -3.4573    0.3998 H       1  LIG1        0.0624
     25 H          -5.8582   -3.3015    1.7350 H       1  LIG1        0.0630
     26 H          -9.6549   -5.8627   -0.0360 H       1  LIG1        0.0643
     27 H          -3.0965   -1.5786   -1.0582 H       1  LIG1        0.0650
     28 H         -12.0356   -6.4744    0.3213 H       1  LIG1        0.0651
     29 H         -12.7251   -2.7995    2.4563 H       1  LIG1        0.0657
     30 H          -6.5755    0.6395    0.1507 H       1  LIG1        0.0657
     31 H         -10.5504    0.0229    2.1145 H       1  LIG1        0.0336
     32 H         -11.0094   -0.8963    3.5572 H       1  LIG1        0.0336
     33 H          -9.0942    0.7728    3.8862 H       1  LIG1        0.0518
     34 H          -8.7428   -0.8668    4.4245 H       1  LIG1        0.0518
     35 H         -15.6547   -4.5157    2.3854 H       1  LIG1        0.0535
     36 H         -14.6584   -3.1527    1.7875 H       1  LIG1        0.0535
     37 H         -14.2297   -3.9751    3.3107 H       1  LIG1        0.0535
     38 H          -3.0273    1.4207   -2.6829 H       1  LIG1        0.0535
     39 H          -3.2939   -0.3496   -2.7378 H       1  LIG1        0.0535
     40 H          -2.3823    0.3777   -1.3886 H       1  LIG1        0.0535
     41 H          -7.8093   -3.8169    0.5213 H       1  LIG1        0.1529
@<TRIPOS>BOND
     1     1     2   ar
     2     1     4   ar
     3     2     9   ar
     4     3     5   ar
     5     3    11   ar
     6     4    13   ar
     7     5    12   ar
     8     6     8   ar
     9     6    12   ar
    10     7     9   ar
    11     7    13   ar
    12     8    10   ar
    13     8    11   ar
    14     9    15    1
    15    10    14   ar
    16    10    16    1
    17    11    21   ar
    18    12    22    1
    19    13    23    1
    20    14    15    1
    21    14    21   ar
    22    15    20    2
    23    16    17    1
    24    17    20    1
    25    18    22    1
    26    19    23    1
    27     1    24    1
    28     2    25    1
    29     3    26    1
    30     4    27    1
    31     5    28    1
    32     6    29    1
    33     7    30    1
    34    16    31    1
    35    16    32    1
    36    17    33    1
    37    17    34    1
    38    18    35    1
    39    18    36    1
    40    18    37    1
    41    19    38    1
    42    19    39    1
    43    19    40    1
    44    21    41    1
