@<TRIPOS>MOLECULE
ChEBML313772
 55 58 0 0 0
SMALL
USER_CHARGES

@<TRIPOS>ATOM
      1 C          -2.5387    0.9163   -3.8085 C.ar    1  LIG1       -0.0622
      2 C          -1.5275    0.2454   -3.1207 C.ar    1  LIG1       -0.0618
      3 C          -3.8036    1.0475   -3.2354 C.ar    1  LIG1       -0.0618
      4 C          -1.7812   -0.2943   -1.8598 C.ar    1  LIG1       -0.0538
      5 C          -4.0573    0.5078   -1.9744 C.ar    1  LIG1       -0.0538
      6 C         -12.4499   -3.0316    1.5712 C.ar    1  LIG1       -0.0207
      7 C         -10.1506   -1.8622    1.8046 C.ar    1  LIG1       -0.0358
      8 C         -10.9803   -5.4065    1.3133 C.ar    1  LIG1       -0.0145
      9 C         -11.0362   -2.9779    1.6280 C.ar    1  LIG1       -0.0076
     10 C          -3.0461   -0.1631   -1.2866 C.ar    1  LIG1       -0.0042
     11 C         -13.1045   -4.2526    1.3890 C.ar    1  LIG1        0.1054
     12 C         -12.3755   -5.4264    1.2617 C.ar    1  LIG1        0.1059
     13 C         -10.3235   -4.1739    1.4971 C.ar    1  LIG1        0.0224
     14 C          -8.8249   -2.2260    1.8038 C.ar    1  LIG1        0.0605
     15 C          -6.3732   -1.8818   -0.0282 C.2     1  LIG1       -0.0332
     16 C          -6.3726   -1.7571    1.3053 C.2     1  LIG1        0.0070
     17 C          -7.6236   -1.3638    1.9572 C.2     1  LIG1        0.1953
     18 C          -5.1414   -2.2702   -0.7873 C.3     1  LIG1       -0.0128
     19 C          -5.1671   -2.0093    2.1565 C.3     1  LIG1        0.0155
     20 C          -4.0477   -2.7512    1.4214 C.3     1  LIG1       -0.0278
     21 C          -2.7604   -3.0269   -0.6920 C.3     1  LIG1       -0.0429
     22 C         -15.0689   -4.1207    0.0549 C.3     1  LIG1        0.0424
     23 C         -13.3609   -7.3470    2.2596 C.3     1  LIG1        0.0424
     24 C          -3.3198   -0.7435    0.0696 C.3     1  LIG1       -0.0064
     25 N          -3.8253   -2.1856    0.0132 N.4     1  LIG1        0.2575
     26 O          -7.6902   -0.3218    2.6092 O.2     1  LIG1       -0.2883
     27 O         -14.4665   -4.2745    1.3382 O.3     1  LIG1       -0.3465
     28 O         -13.0142   -6.6181    1.0846 O.3     1  LIG1       -0.3465
     29 S          -8.6228   -3.9052    1.5918 S.2     1  LIG1       -0.0852
     30 H          -2.3405    1.3375   -4.7897 H       1  LIG1        0.0622
     31 H          -0.5423    0.1441   -3.5663 H       1  LIG1        0.0623
     32 H          -4.5908    1.5706   -3.7701 H       1  LIG1        0.0623
     33 H          -0.9874   -0.8155   -1.3312 H       1  LIG1        0.0628
     34 H          -5.0459    0.6148   -1.5358 H       1  LIG1        0.0628
     35 H         -13.0293   -2.1162    1.6705 H       1  LIG1        0.0658
     36 H         -10.4850   -0.8388    1.9260 H       1  LIG1        0.0643
     37 H         -10.4120   -6.3272    1.2122 H       1  LIG1        0.0663
     38 H          -7.2742   -1.7051   -0.6089 H       1  LIG1        0.0635
     39 H          -5.2503   -3.3079   -1.1243 H       1  LIG1        0.0863
     40 H          -5.0165   -1.6333   -1.6702 H       1  LIG1        0.0863
     41 H          -4.7926   -1.0510    2.5364 H       1  LIG1        0.0372
     42 H          -5.4490   -2.6023    3.0350 H       1  LIG1        0.0372
     43 H          -3.1002   -2.6805    1.9674 H       1  LIG1        0.0819
     44 H          -4.3059   -3.8109    1.3014 H       1  LIG1        0.0819
     45 H          -1.8390   -2.9542   -0.1113 H       1  LIG1        0.0778
     46 H          -3.1199   -4.0569   -0.7306 H       1  LIG1        0.0778
     47 H          -2.6245   -2.6206   -1.6960 H       1  LIG1        0.0778
     48 H         -16.1564   -4.1565    0.1553 H       1  LIG1        0.0535
     49 H         -14.7270   -4.9202   -0.6072 H       1  LIG1        0.0535
     50 H         -14.7754   -3.1545   -0.3621 H       1  LIG1        0.0535
     51 H         -13.8636   -8.2755    1.9783 H       1  LIG1        0.0535
     52 H         -14.0190   -6.7391    2.8856 H       1  LIG1        0.0535
     53 H         -12.4493   -7.5823    2.8139 H       1  LIG1        0.0535
     54 H          -2.4151   -0.7513    0.6868 H       1  LIG1        0.0869
     55 H          -4.0817   -0.1637    0.6016 H       1  LIG1        0.0869
@<TRIPOS>BOND
     1     1     2   ar
     2     1     3   ar
     3     2     4   ar
     4     3     5   ar
     5     4    10   ar
     6     5    10   ar
     7     6     9   ar
     8     6    11   ar
     9     7     9   ar
    10     7    14   ar
    11     8    12   ar
    12     8    13   ar
    13     9    13   ar
    14    10    24    1
    15    11    12   ar
    16    11    27    1
    17    12    28    1
    18    13    29   ar
    19    14    17    1
    20    14    29   ar
    21    15    16    2
    22    15    18    1
    23    16    17    1
    24    16    19    1
    25    17    26    2
    26    18    25    1
    27    19    20    1
    28    20    25    1
    29    21    25    1
    30    22    27    1
    31    23    28    1
    32    24    25    1
    33     1    30    1
    34     2    31    1
    35     3    32    1
    36     4    33    1
    37     5    34    1
    38     6    35    1
    39     7    36    1
    40     8    37    1
    41    15    38    1
    42    18    39    1
    43    18    40    1
    44    19    41    1
    45    19    42    1
    46    20    43    1
    47    20    44    1
    48    21    45    1
    49    21    46    1
    50    21    47    1
    51    22    48    1
    52    22    49    1
    53    22    50    1
    54    23    51    1
    55    23    52    1
    56    23    53    1
    57    24    54    1
    58    24    55    1
