@<TRIPOS>MOLECULE
ChEBML300209
 36 37 0 0 0
SMALL
USER_CHARGES

@<TRIPOS>ATOM
      1 C         -10.6960   -5.1148    0.6381 C.ar    1  LIG1       -0.0387
      2 C         -11.9699   -5.4863    1.0772 C.ar    1  LIG1       -0.0416
      3 C         -12.0864   -3.5607    2.5522 C.ar    1  LIG1       -0.0343
      4 C          -9.9434   -2.0776    2.4423 C.ar    1  LIG1       -0.0262
      5 C         -10.8030   -3.1663    2.1247 C.ar    1  LIG1       -0.0007
      6 C         -10.1387   -3.9508    1.1794 C.ar    1  LIG1        0.0379
      7 C         -12.6563   -4.7228    2.0194 C.ar    1  LIG1        0.0413
      8 C          -8.7952   -2.2197    1.6977 C.ar    1  LIG1        0.0945
      9 C          -7.5972   -1.3415    1.6739 C.2     1  LIG1        0.2576
     10 C          -4.7768   -1.1472   -0.6996 C.2     1  LIG1        0.2316
     11 C          -2.5151   -0.9508    0.3626 C.3     1  LIG1        0.0031
     12 C          -5.3406   -0.9958    0.7022 C.3     1  LIG1        0.0887
     13 C          -2.6891   -1.2530   -2.0773 C.3     1  LIG1        0.1098
     14 C          -2.4661    0.0862   -2.7335 C.3     1  LIG1        0.4038
     15 N          -8.9226   -3.3524    0.9390 N.ar    1  LIG1       -0.3101
     16 N          -6.5699   -1.7270    0.8184 N.am    1  LIG1       -0.3013
     17 N          -3.3814   -1.1182   -0.8017 N.am    1  LIG1       -0.2945
     18 O          -7.5616   -0.3554    2.4051 O.2     1  LIG1       -0.2704
     19 O          -5.5261   -1.2876   -1.6698 O.2     1  LIG1       -0.2756
     20 F          -1.8211   -0.0661   -3.9112 F       1  LIG1       -0.1693
     21 F          -3.6353    0.7127   -2.9855 F       1  LIG1       -0.1693
     22 F          -1.7149    0.8963   -1.9576 F       1  LIG1       -0.1693
     23 CL        -14.2258   -5.2124    2.5347 Cl      1  LIG1       -0.0843
     24 H         -10.1624   -5.7105   -0.0950 H       1  LIG1        0.0643
     25 H         -12.4186   -6.3888    0.6674 H       1  LIG1        0.0639
     26 H         -12.6204   -2.9645    3.2875 H       1  LIG1        0.0645
     27 H         -10.1472   -1.2775    3.1413 H       1  LIG1        0.0651
     28 H          -2.2621   -1.9262    0.7861 H       1  LIG1        0.0433
     29 H          -3.0210   -0.3556    1.1276 H       1  LIG1        0.0433
     30 H          -1.5913   -0.4411    0.0761 H       1  LIG1        0.0433
     31 H          -4.6428   -1.4032    1.4383 H       1  LIG1        0.0567
     32 H          -5.5606    0.0539    0.9131 H       1  LIG1        0.0567
     33 H          -1.7350   -1.7528   -1.8853 H       1  LIG1        0.0564
     34 H          -3.2964   -1.9000   -2.7169 H       1  LIG1        0.0564
     35 H          -8.2263   -3.7018    0.2947 H       1  LIG1        0.1529
     36 H          -6.6539   -2.5954    0.2912 H       1  LIG1        0.1503
@<TRIPOS>BOND
     1     1     2   ar
     2     1     6   ar
     3     2     7   ar
     4     3     5   ar
     5     3     7   ar
     6     4     5   ar
     7     4     8   ar
     8     5     6   ar
     9     6    15   ar
    10     7    23    1
    11     8     9    1
    12     8    15   ar
    13     9    16   am
    14     9    18    2
    15    10    12    1
    16    10    17   am
    17    10    19    2
    18    11    17    1
    19    12    16    1
    20    13    14    1
    21    13    17    1
    22    14    20    1
    23    14    21    1
    24    14    22    1
    25     1    24    1
    26     2    25    1
    27     3    26    1
    28     4    27    1
    29    11    28    1
    30    11    29    1
    31    11    30    1
    32    12    31    1
    33    12    32    1
    34    13    33    1
    35    13    34    1
    36    15    35    1
    37    16    36    1
