@<TRIPOS>MOLECULE
ChEBML645659
 43 46 0 0 0
SMALL
USER_CHARGES

@<TRIPOS>ATOM
      1 C          -3.0308    0.3660   -3.6412 C.ar    1  LIG1       -0.0622
      2 C          -2.3571   -0.6679   -2.9912 C.ar    1  LIG1       -0.0620
      3 C          -3.9356    1.1602   -2.9367 C.ar    1  LIG1       -0.0620
      4 C         -11.8889   -3.0412    2.0750 C.ar    1  LIG1       -0.0522
      5 C         -12.4635   -4.2888    1.8060 C.ar    1  LIG1       -0.0489
      6 C          -2.5882   -0.9079   -1.6367 C.ar    1  LIG1       -0.0586
      7 C          -4.1667    0.9204   -1.5821 C.ar    1  LIG1       -0.0586
      8 C          -9.6537   -1.7126    1.8669 C.ar    1  LIG1       -0.0294
      9 C         -10.3741   -5.1106    0.8768 C.ar    1  LIG1       -0.0276
     10 C          -5.9787   -1.6879    0.7570 C.ar    1  LIG1       -0.0138
     11 C         -10.5376   -2.8208    1.7417 C.ar    1  LIG1       -0.0023
     12 C         -11.7160   -5.3060    1.2161 C.ar    1  LIG1        0.0389
     13 C          -3.4930   -0.1137   -0.9321 C.ar    1  LIG1       -0.0423
     14 C          -9.8129   -3.8584    1.1516 C.ar    1  LIG1        0.0385
     15 C          -7.2158   -1.2693    1.2826 C.ar    1  LIG1        0.1040
     16 C          -8.4322   -2.0920    1.3600 C.ar    1  LIG1        0.0587
     17 C          -5.1584   -0.5954    0.8979 C.ar    1  LIG1        0.0315
     18 C         -12.3395   -6.5935    0.9502 C.2     1  LIG1        0.2428
     19 C         -14.4897   -7.7977    0.4938 C.3     1  LIG1       -0.0001
     20 C          -3.7461   -0.3753    0.5473 C.3     1  LIG1        0.0122
     21 N          -7.1884   -0.0091    1.7245 N.ar    1  LIG1       -0.1825
     22 N          -8.5381   -3.3878    0.9308 N.ar    1  LIG1       -0.3126
     23 N          -5.9241    0.3735    1.4770 N.ar    1  LIG1       -0.2417
     24 N         -13.7237   -6.5981    0.7451 N.am    1  LIG1       -0.3144
     25 O         -11.6570   -7.6329    0.9313 O.2     1  LIG1       -0.2719
     26 H          -2.8497    0.5536   -4.6956 H       1  LIG1        0.0622
     27 H          -1.6518   -1.2858   -3.5393 H       1  LIG1        0.0623
     28 H          -4.4594    1.9661   -3.4422 H       1  LIG1        0.0623
     29 H         -12.4827   -2.2569    2.5355 H       1  LIG1        0.0630
     30 H         -13.5068   -4.4535    2.0654 H       1  LIG1        0.0631
     31 H          -2.0589   -1.7159   -1.1385 H       1  LIG1        0.0625
     32 H          -4.8734    1.5442   -1.0414 H       1  LIG1        0.0625
     33 H          -9.8931   -0.7433    2.2843 H       1  LIG1        0.0650
     34 H          -9.7838   -5.8983    0.4186 H       1  LIG1        0.0651
     35 H          -5.7148   -2.6469    0.3338 H       1  LIG1        0.0664
     36 H         -14.6010   -7.9538   -0.5823 H       1  LIG1        0.0430
     37 H         -15.4835   -7.7123    0.9418 H       1  LIG1        0.0430
     38 H         -13.9844   -8.6661    0.9250 H       1  LIG1        0.0430
     39 H          -3.1121   -1.2343    0.8557 H       1  LIG1        0.0379
     40 H          -3.3114    0.4698    1.1233 H       1  LIG1        0.0379
     41 H          -7.7913   -3.9249    0.5119 H       1  LIG1        0.1528
     42 H          -5.6511    1.3149    1.7305 H       1  LIG1        0.1751
     43 H         -14.2417   -5.7300    0.8338 H       1  LIG1        0.1493
@<TRIPOS>BOND
     1     1     2   ar
     2     1     3   ar
     3     2     6   ar
     4     3     7   ar
     5     4     5   ar
     6     4    11   ar
     7     5    12   ar
     8     6    13   ar
     9     7    13   ar
    10     8    11   ar
    11     8    16   ar
    12     9    12   ar
    13     9    14   ar
    14    10    15   ar
    15    10    17   ar
    16    11    14   ar
    17    12    18    1
    18    13    20    1
    19    14    22   ar
    20    15    16    1
    21    15    21   ar
    22    16    22   ar
    23    17    20    1
    24    17    23   ar
    25    18    24   am
    26    18    25    2
    27    19    24    1
    28    21    23   ar
    29     1    26    1
    30     2    27    1
    31     3    28    1
    32     4    29    1
    33     5    30    1
    34     6    31    1
    35     7    32    1
    36     8    33    1
    37     9    34    1
    38    10    35    1
    39    19    36    1
    40    19    37    1
    41    19    38    1
    42    20    39    1
    43    20    40    1
    44    22    41    1
    45    23    42    1
    46    24    43    1
