@<TRIPOS>MOLECULE
ChEBML232802
 35 37 0 0 0
SMALL
USER_CHARGES

@<TRIPOS>ATOM
      1 C          -5.6847   -1.4647   -1.4592 C.ar    1  LIG1       -0.0613
      2 C          -4.4216   -1.0609   -1.0263 C.ar    1  LIG1       -0.0596
      3 C          -6.7530   -1.4932   -0.5628 C.ar    1  LIG1       -0.0483
      4 C         -11.5892   -5.6426    0.7484 C.ar    1  LIG1       -0.0574
      5 C         -10.2560   -5.2483    0.6039 C.ar    1  LIG1       -0.0399
      6 C          -4.2270   -0.6858    0.3030 C.ar    1  LIG1       -0.0310
      7 C         -12.1687   -3.5149    1.7652 C.ar    1  LIG1       -0.0501
      8 C         -10.1264   -1.9040    1.9618 C.ar    1  LIG1       -0.0276
      9 C         -10.8303   -3.0954    1.6300 C.ar    1  LIG1       -0.0020
     10 C          -6.5583   -1.1181    0.7665 C.ar    1  LIG1        0.0541
     11 C         -12.5325   -4.7909    1.3197 C.ar    1  LIG1       -0.0504
     12 C          -9.9067   -3.9700    1.0537 C.ar    1  LIG1        0.0378
     13 C          -5.2952   -0.7144    1.1994 C.ar    1  LIG1        0.0858
     14 C          -8.8135   -2.0754    1.5877 C.ar    1  LIG1        0.0798
     15 C          -7.7273   -1.1566    1.7184 C.2     1  LIG1        0.2092
     16 C         -13.9484   -5.2425    1.4595 C.3     1  LIG1       -0.0397
     17 C          -3.7626    0.0555    2.8468 C.3     1  LIG1        0.0423
     18 N          -8.6908   -3.3245    1.0407 N.ar    1  LIG1       -0.3112
     19 O          -7.6913   -0.3199    2.6506 O.2     1  LIG1       -0.2870
     20 O          -5.0856   -0.3423    2.4938 O.3     1  LIG1       -0.3485
     21 H          -5.8359   -1.7567   -2.4945 H       1  LIG1        0.0623
     22 H          -3.5902   -1.0394   -1.7246 H       1  LIG1        0.0623
     23 H          -7.7329   -1.8092   -0.9115 H       1  LIG1        0.0631
     24 H         -11.8843   -6.6320    0.4060 H       1  LIG1        0.0626
     25 H          -9.5223   -5.9121    0.1589 H       1  LIG1        0.0643
     26 H          -3.2405   -0.3721    0.6338 H       1  LIG1        0.0650
     27 H         -12.9075   -2.8537    2.2102 H       1  LIG1        0.0632
     28 H         -10.5406   -1.0183    2.4251 H       1  LIG1        0.0651
     29 H         -14.0947   -5.7431    2.4239 H       1  LIG1        0.0280
     30 H         -14.6434   -4.3958    1.3967 H       1  LIG1        0.0280
     31 H         -14.2233   -5.9405    0.6586 H       1  LIG1        0.0280
     32 H          -3.7330    0.3265    3.9050 H       1  LIG1        0.0535
     33 H          -3.4614    0.9081    2.2329 H       1  LIG1        0.0535
     34 H          -3.0807   -0.7791    2.6675 H       1  LIG1        0.0535
     35 H          -7.8334   -3.7190    0.6790 H       1  LIG1        0.1529
@<TRIPOS>BOND
     1     1     2   ar
     2     1     3   ar
     3     2     6   ar
     4     3    10   ar
     5     4     5   ar
     6     4    11   ar
     7     5    12   ar
     8     6    13   ar
     9     7     9   ar
    10     7    11   ar
    11     8     9   ar
    12     8    14   ar
    13     9    12   ar
    14    10    13   ar
    15    10    15    1
    16    11    16    1
    17    12    18   ar
    18    13    20    1
    19    14    15    1
    20    14    18   ar
    21    15    19    2
    22    17    20    1
    23     1    21    1
    24     2    22    1
    25     3    23    1
    26     4    24    1
    27     5    25    1
    28     6    26    1
    29     7    27    1
    30     8    28    1
    31    16    29    1
    32    16    30    1
    33    16    31    1
    34    17    32    1
    35    17    33    1
    36    17    34    1
    37    18    35    1
