@<TRIPOS>MOLECULE
ChEBML242118
 61 66 0 0 0
SMALL
USER_CHARGES

@<TRIPOS>ATOM
      1 C         -16.0468   -6.7101   -1.5291 C.ar    1  LIG1       -0.0621
      2 C           0.3776   -4.7165   -1.5582 C.ar    1  LIG1       -0.0616
      3 C           1.3085   -4.0093   -2.3127 C.ar    1  LIG1       -0.0616
      4 C         -14.7099   -6.3267   -1.6351 C.ar    1  LIG1       -0.0596
      5 C         -16.7479   -6.4756   -0.3461 C.ar    1  LIG1       -0.0596
      6 C          -0.8473   -4.1320   -1.2364 C.ar    1  LIG1       -0.0543
      7 C           1.0170   -2.7159   -2.7471 C.ar    1  LIG1       -0.0543
      8 C         -10.4899   -5.0479    1.7220 C.ar    1  LIG1       -0.0381
      9 C         -11.1729   -2.8854    0.8888 C.ar    1  LIG1       -0.0381
     10 C         -14.0740   -5.7090   -0.5583 C.ar    1  LIG1       -0.0312
     11 C         -16.1119   -5.8579    0.7307 C.ar    1  LIG1       -0.0312
     12 C         -11.8277   -5.4099    1.8792 C.ar    1  LIG1       -0.0294
     13 C         -12.5108   -3.2475    1.0461 C.ar    1  LIG1       -0.0294
     14 C          -2.3781   -2.2231   -1.3548 C.ar    1  LIG1       -0.0414
     15 C          -0.5228   -0.8080   -2.8612 C.ar    1  LIG1       -0.0277
     16 C          -3.1979    1.5705   -2.6439 C.ar    1  LIG1        0.1179
     17 C          -1.1547   -2.8304   -1.6667 C.ar    1  LIG1       -0.0175
     18 C          -0.2116   -2.1120   -2.4318 C.ar    1  LIG1       -0.0162
     19 C          -2.6638   -0.9190   -1.7960 C.ar    1  LIG1        0.0412
     20 C          -1.7362   -0.1944   -2.5571 C.ar    1  LIG1        0.0762
     21 C         -10.1625   -3.7856    1.2267 C.ar    1  LIG1        0.0341
     22 C         -14.7750   -5.4746    0.6247 C.ar    1  LIG1        0.0820
     23 C         -12.8381   -4.5097    1.5412 C.ar    1  LIG1        0.0822
     24 C          -3.8638   -0.2722   -1.5127 C.ar    1  LIG1        0.1313
     25 C          -8.4098   -2.1072    1.2608 C.2     1  LIG1        0.3050
     26 C          -5.2536   -0.3307    0.4963 C.3     1  LIG1        0.0288
     27 C          -5.7358   -1.8309   -1.4616 C.3     1  LIG1        0.0288
     28 C          -6.7758   -0.3603    0.6136 C.3     1  LIG1        0.0315
     29 C          -6.6000   -2.5957   -0.4581 C.3     1  LIG1        0.0315
     30 N          -2.0000    1.0533   -2.9838 N.ar    1  LIG1       -0.2361
     31 N          -4.1611    0.9751   -1.9232 N.ar    1  LIG1       -0.2208
     32 N          -4.8512   -0.9419   -0.7482 N.pl3   1  LIG1       -0.3121
     33 N          -7.3001   -1.7186    0.4867 N.am    1  LIG1       -0.2824
     34 N          -8.8201   -3.4222    1.0689 N.am    1  LIG1       -0.2690
     35 O          -8.9706   -1.3446    2.0543 O.2     1  LIG1       -0.2537
     36 O         -14.1436   -4.8630    1.6947 O.3     1  LIG1       -0.3104
     37 H         -16.5424   -7.1905   -2.3676 H       1  LIG1        0.0622
     38 H           0.6041   -5.7231   -1.2197 H       1  LIG1        0.0623
     39 H           2.2630   -4.4634   -2.5637 H       1  LIG1        0.0623
     40 H         -14.1638   -6.5093   -2.5561 H       1  LIG1        0.0623
     41 H         -17.7890   -6.7743   -0.2644 H       1  LIG1        0.0623
     42 H          -1.5609   -4.7023   -0.6457 H       1  LIG1        0.0629
     43 H           1.7599   -2.1818   -3.3361 H       1  LIG1        0.0629
     44 H          -9.7106   -5.7574    1.9884 H       1  LIG1        0.0643
     45 H         -10.9296   -1.8990    0.5020 H       1  LIG1        0.0643
     46 H         -13.0319   -5.4142   -0.6468 H       1  LIG1        0.0650
     47 H         -16.6626   -5.6795    1.6504 H       1  LIG1        0.0650
     48 H         -12.0765   -6.3947    2.2653 H       1  LIG1        0.0651
     49 H         -13.2935   -2.5418    0.7811 H       1  LIG1        0.0651
     50 H          -3.1031   -2.7803   -0.7639 H       1  LIG1        0.0637
     51 H           0.2075   -0.2543   -3.4524 H       1  LIG1        0.0652
     52 H          -3.4036    2.5758   -2.9906 H       1  LIG1        0.1063
     53 H          -4.9086    0.7067    0.5877 H       1  LIG1        0.0485
     54 H          -4.8015   -0.9002    1.3172 H       1  LIG1        0.0485
     55 H          -5.1714   -2.5477   -2.0699 H       1  LIG1        0.0485
     56 H          -6.3794   -1.2543   -2.1384 H       1  LIG1        0.0485
     57 H          -7.0840    0.0757    1.5698 H       1  LIG1        0.0486
     58 H          -7.2368    0.2367   -0.1826 H       1  LIG1        0.0486
     59 H          -7.3309   -3.2026   -1.0027 H       1  LIG1        0.0486
     60 H          -5.9776   -3.2724    0.1400 H       1  LIG1        0.0486
     61 H          -8.1642   -4.1675    0.8660 H       1  LIG1        0.1573
@<TRIPOS>BOND
     1     1     4   ar
     2     1     5   ar
     3     2     3   ar
     4     2     6   ar
     5     3     7   ar
     6     4    10   ar
     7     5    11   ar
     8     6    17   ar
     9     7    18   ar
    10     8    12   ar
    11     8    21   ar
    12     9    13   ar
    13     9    21   ar
    14    10    22   ar
    15    11    22   ar
    16    12    23   ar
    17    13    23   ar
    18    14    17   ar
    19    14    19   ar
    20    15    18   ar
    21    15    20   ar
    22    16    30   ar
    23    16    31   ar
    24    17    18   ar
    25    19    20   ar
    26    19    24   ar
    27    20    30   ar
    28    21    34    1
    29    22    36    1
    30    23    36    1
    31    24    31   ar
    32    24    32    1
    33    25    33   am
    34    25    34   am
    35    25    35    2
    36    26    28    1
    37    26    32    1
    38    27    29    1
    39    27    32    1
    40    28    33    1
    41    29    33    1
    42     1    37    1
    43     2    38    1
    44     3    39    1
    45     4    40    1
    46     5    41    1
    47     6    42    1
    48     7    43    1
    49     8    44    1
    50     9    45    1
    51    10    46    1
    52    11    47    1
    53    12    48    1
    54    13    49    1
    55    14    50    1
    56    15    51    1
    57    16    52    1
    58    26    53    1
    59    26    54    1
    60    27    55    1
    61    27    56    1
    62    28    57    1
    63    28    58    1
    64    29    59    1
    65    29    60    1
    66    34    61    1
