@<TRIPOS>MOLECULE
ChEBML1074833
 47 51 0 0 0
SMALL
USER_CHARGES

@<TRIPOS>ATOM
      1 C          -1.7349    1.6195   -4.0765 C.ar    1  LIG1       -0.0622
      2 C          -0.8208    1.0980   -3.1610 C.ar    1  LIG1       -0.0619
      3 C          -2.9840    1.0188   -4.2341 C.ar    1  LIG1       -0.0619
      4 C         -12.2673   -3.6188    1.4204 C.ar    1  LIG1       -0.0528
      5 C          -1.1556   -0.0243   -2.4034 C.ar    1  LIG1       -0.0574
      6 C          -3.3188   -0.1034   -3.4764 C.ar    1  LIG1       -0.0574
      7 C         -12.5848   -4.8880    0.9228 C.ar    1  LIG1       -0.0586
      8 C          -4.7009    0.4003    1.3725 C.ar    1  LIG1       -0.0368
      9 C          -4.1252   -0.2405    0.2704 C.ar    1  LIG1       -0.0392
     10 C          -6.0419   -1.7228    0.0442 C.ar    1  LIG1       -0.0296
     11 C         -10.2547   -2.0144    1.8441 C.ar    1  LIG1       -0.0293
     12 C         -10.2480   -5.3392    0.4329 C.ar    1  LIG1       -0.0372
     13 C         -10.9219   -3.1998    1.4264 C.ar    1  LIG1       -0.0023
     14 C          -6.6333   -1.0891    1.1498 C.ar    1  LIG1        0.0283
     15 C          -2.4046   -0.6251   -2.5611 C.ar    1  LIG1       -0.0309
     16 C         -11.5891   -5.7332    0.4372 C.ar    1  LIG1       -0.0492
     17 C          -5.9567   -0.0523    1.7828 C.ar    1  LIG1        0.0571
     18 C          -9.9453   -4.0678    0.9335 C.ar    1  LIG1        0.0380
     19 C          -4.7827   -1.2841   -0.3838 C.ar    1  LIG1        0.0270
     20 C          -7.8375   -1.2153    1.8751 C.ar    1  LIG1        0.1117
     21 C          -8.9109   -2.1826    1.6014 C.ar    1  LIG1        0.0593
     22 C         -11.9581   -7.0815   -0.0875 C.3     1  LIG1       -0.0397
     23 C          -2.7656   -1.8333   -1.7461 C.3     1  LIG1        0.0336
     24 N          -7.9305   -0.3429    2.8812 N.ar    1  LIG1       -0.1816
     25 N          -8.7342   -3.4242    1.0520 N.ar    1  LIG1       -0.3126
     26 N          -6.7802    0.3465    2.8010 N.ar    1  LIG1       -0.2373
     27 N          -4.1700   -1.9079   -1.4938 N.pl3   1  LIG1       -0.3402
     28 H          -1.4746    2.4942   -4.6653 H       1  LIG1        0.0622
     29 H           0.1514    1.5661   -3.0374 H       1  LIG1        0.0623
     30 H          -3.6964    1.4253   -4.9458 H       1  LIG1        0.0623
     31 H         -13.0534   -2.9700    1.7960 H       1  LIG1        0.0630
     32 H          -0.4370   -0.4240   -1.6928 H       1  LIG1        0.0626
     33 H          -4.2942   -0.5649   -3.6061 H       1  LIG1        0.0626
     34 H         -13.6242   -5.2078    0.9199 H       1  LIG1        0.0625
     35 H          -4.1917    1.2106    1.8822 H       1  LIG1        0.0644
     36 H          -3.1468    0.0891   -0.0735 H       1  LIG1        0.0643
     37 H          -6.5506   -2.5354   -0.4673 H       1  LIG1        0.0650
     38 H         -10.7157   -1.1355    2.2757 H       1  LIG1        0.0650
     39 H          -9.4672   -5.9923    0.0562 H       1  LIG1        0.0645
     40 H         -12.1721   -7.0261   -1.1613 H       1  LIG1        0.0280
     41 H         -11.1478   -7.8041    0.0704 H       1  LIG1        0.0280
     42 H         -12.8434   -7.4779    0.4253 H       1  LIG1        0.0280
     43 H          -2.4666   -2.7513   -2.2634 H       1  LIG1        0.0517
     44 H          -2.2518   -1.8227   -0.7791 H       1  LIG1        0.0517
     45 H          -7.8449   -3.8154    0.7726 H       1  LIG1        0.1528
     46 H          -6.6161    1.0821    3.4766 H       1  LIG1        0.1755
     47 H          -4.7695   -2.4162   -2.1143 H       1  LIG1        0.1468
@<TRIPOS>BOND
     1     1     2   ar
     2     1     3   ar
     3     2     5   ar
     4     3     6   ar
     5     4     7   ar
     6     4    13   ar
     7     5    15   ar
     8     6    15   ar
     9     7    16   ar
    10     8     9   ar
    11     8    17   ar
    12     9    19   ar
    13    10    14   ar
    14    10    19   ar
    15    11    13   ar
    16    11    21   ar
    17    12    16   ar
    18    12    18   ar
    19    13    18   ar
    20    14    17   ar
    21    14    20   ar
    22    15    23    1
    23    16    22    1
    24    17    26   ar
    25    18    25   ar
    26    19    27    1
    27    20    21    1
    28    20    24   ar
    29    21    25   ar
    30    23    27    1
    31    24    26   ar
    32     1    28    1
    33     2    29    1
    34     3    30    1
    35     4    31    1
    36     5    32    1
    37     6    33    1
    38     7    34    1
    39     8    35    1
    40     9    36    1
    41    10    37    1
    42    11    38    1
    43    12    39    1
    44    22    40    1
    45    22    41    1
    46    22    42    1
    47    23    43    1
    48    23    44    1
    49    25    45    1
    50    26    46    1
    51    27    47    1
