@<TRIPOS>MOLECULE
ChEBML513113
 45 47 0 0 0
SMALL
USER_CHARGES

@<TRIPOS>ATOM
      1 C         -12.3952   -4.8039    1.3212 C.ar    1  LIG1       -0.0615
      2 C         -11.5670   -5.3983    0.3712 C.ar    1  LIG1       -0.0603
      3 C         -11.9307   -3.7513    2.1181 C.ar    1  LIG1       -0.0530
      4 C         -10.2520   -4.9618    0.1871 C.ar    1  LIG1       -0.0402
      5 C          -9.8252   -2.2781    2.5664 C.ar    1  LIG1       -0.0262
      6 C         -10.6084   -3.2942    1.9506 C.ar    1  LIG1       -0.0022
      7 C          -9.8012   -3.9087    0.9910 C.ar    1  LIG1        0.0378
      8 C          -8.5807   -2.2954    1.9798 C.ar    1  LIG1        0.0947
      9 C          -7.4211   -1.4381    2.2727 C.2     1  LIG1        0.2598
     10 C          -3.7750   -1.2203   -2.5013 C.3     1  LIG1       -0.0533
     11 C          -5.0133   -2.0081   -2.0850 C.3     1  LIG1       -0.0530
     12 C          -2.6839   -1.2867   -1.4372 C.3     1  LIG1       -0.0530
     13 C          -5.5336   -1.5605   -0.7209 C.3     1  LIG1       -0.0487
     14 C          -3.2003   -0.8380   -0.0720 C.3     1  LIG1       -0.0487
     15 C          -4.4410   -1.6344    0.3542 C.3     1  LIG1       -0.0229
     16 C          -3.9137   -1.2303    2.7842 C.3     1  LIG1       -0.0462
     17 C          -5.8757   -3.3579    2.2640 C.3     1  LIG1        0.0034
     18 C          -4.9699   -1.1317    1.6962 C.3     1  LIG1        0.0253
     19 N          -8.5761   -3.2820    1.0306 N.ar    1  LIG1       -0.3101
     20 N          -6.1442   -1.9467    2.0850 N.am    1  LIG1       -0.2967
     21 O          -7.6715   -0.2969    2.6590 O.2     1  LIG1       -0.2702
     22 H         -13.4144   -5.1603    1.4454 H       1  LIG1        0.0623
     23 H         -11.9484   -6.2146   -0.2367 H       1  LIG1        0.0623
     24 H         -12.5871   -3.2965    2.8548 H       1  LIG1        0.0629
     25 H          -9.6073   -5.4250   -0.5523 H       1  LIG1        0.0642
     26 H         -10.1426   -1.6081    3.3545 H       1  LIG1        0.0651
     27 H          -3.3895   -1.6119   -3.4494 H       1  LIG1        0.0266
     28 H          -4.0509   -0.1731   -2.6760 H       1  LIG1        0.0266
     29 H          -5.7991   -1.8836   -2.8385 H       1  LIG1        0.0267
     30 H          -4.7708   -3.0775   -2.0502 H       1  LIG1        0.0267
     31 H          -2.3069   -2.3143   -1.3652 H       1  LIG1        0.0267
     32 H          -1.8388   -0.6568   -1.7367 H       1  LIG1        0.0267
     33 H          -5.9121   -0.5332   -0.7989 H       1  LIG1        0.0270
     34 H          -6.3838   -2.1907   -0.4342 H       1  LIG1        0.0270
     35 H          -2.4043   -0.9586    0.6724 H       1  LIG1        0.0270
     36 H          -3.4393    0.2325   -0.1108 H       1  LIG1        0.0270
     37 H          -4.1502   -2.6860    0.4793 H       1  LIG1        0.0322
     38 H          -3.5783   -2.2666    2.9018 H       1  LIG1        0.0249
     39 H          -4.3101   -0.8911    3.7468 H       1  LIG1        0.0249
     40 H          -3.0325   -0.6245    2.5454 H       1  LIG1        0.0249
     41 H          -6.0177   -3.8901    1.3199 H       1  LIG1        0.0433
     42 H          -6.5534   -3.7798    3.0112 H       1  LIG1        0.0433
     43 H          -4.8463   -3.5070    2.6008 H       1  LIG1        0.0433
     44 H          -5.2946   -0.0928    1.5905 H       1  LIG1        0.0506
     45 H          -7.7886   -3.5195    0.4430 H       1  LIG1        0.1529
@<TRIPOS>BOND
     1     1     2   ar
     2     1     3   ar
     3     2     4   ar
     4     3     6   ar
     5     4     7   ar
     6     5     6   ar
     7     5     8   ar
     8     6     7   ar
     9     7    19   ar
    10     8     9    1
    11     8    19   ar
    12     9    20   am
    13     9    21    2
    14    10    11    1
    15    10    12    1
    16    11    13    1
    17    12    14    1
    18    13    15    1
    19    14    15    1
    20    15    18    1
    21    16    18    1
    22    17    20    1
    23    18    20    1
    24     1    22    1
    25     2    23    1
    26     3    24    1
    27     4    25    1
    28     5    26    1
    29    10    27    1
    30    10    28    1
    31    11    29    1
    32    11    30    1
    33    12    31    1
    34    12    32    1
    35    13    33    1
    36    13    34    1
    37    14    35    1
    38    14    36    1
    39    15    37    1
    40    16    38    1
    41    16    39    1
    42    16    40    1
    43    17    41    1
    44    17    42    1
    45    17    43    1
    46    18    44    1
    47    19    45    1
