@<TRIPOS>MOLECULE
ChEBML1262790
 40 43 0 0 0
SMALL
USER_CHARGES

@<TRIPOS>ATOM
      1 C         -10.2282   -5.1157    0.3900 C.ar    1  LIG1       -0.0387
      2 C         -11.5321   -5.5079    0.5929 C.ar    1  LIG1       -0.0416
      3 C         -11.9568   -3.5781    1.9436 C.ar    1  LIG1       -0.0343
      4 C          -9.8957   -2.0356    2.1983 C.ar    1  LIG1       -0.0262
      5 C         -10.6342   -3.1579    1.7511 C.ar    1  LIG1       -0.0007
      6 C          -9.7624   -3.9365    0.9653 C.ar    1  LIG1        0.0379
      7 C         -12.3911   -4.7379    1.3689 C.ar    1  LIG1        0.0413
      8 C          -8.6367   -2.1428    1.6989 C.ar    1  LIG1        0.0947
      9 C          -7.5458   -1.1827    1.9237 C.2     1  LIG1        0.2598
     10 C          -6.0632   -2.3050    0.2130 C.3     1  LIG1        0.0228
     11 C          -5.1374   -0.5423    1.4761 C.3     1  LIG1        0.0228
     12 C          -3.6581   -2.5365   -0.4629 C.3     1  LIG1       -0.0296
     13 C          -3.0511   -0.3233    0.0989 C.3     1  LIG1       -0.0296
     14 C          -4.9446   -1.6976   -0.6505 C.3     1  LIG1        0.0231
     15 C          -4.5878   -0.3500    0.0425 C.3     1  LIG1        0.0231
     16 C          -1.3458   -2.0356    0.0546 C.3     1  LIG1       -0.0454
     17 N          -8.5466   -3.2944    0.9413 N.ar    1  LIG1       -0.3101
     18 N          -6.3746   -1.3289    1.2730 N.am    1  LIG1       -0.2957
     19 N          -2.5676   -1.5378   -0.5914 N.4     1  LIG1        0.2444
     20 O          -7.7005   -0.2564    2.6971 O.2     1  LIG1       -0.2702
     21 CL        -14.0304   -5.2560    1.6099 Cl      1  LIG1       -0.0843
     22 H          -9.5685   -5.7211   -0.2138 H       1  LIG1        0.0643
     23 H         -11.8912   -6.4229    0.1452 H       1  LIG1        0.0639
     24 H         -12.6308   -2.9863    2.5452 H       1  LIG1        0.0645
     25 H         -10.2667   -1.2377    2.8247 H       1  LIG1        0.0651
     26 H          -6.9479   -2.4837   -0.3981 H       1  LIG1        0.0475
     27 H          -5.7221   -3.2397    0.6582 H       1  LIG1        0.0475
     28 H          -5.3661    0.4213    1.9314 H       1  LIG1        0.0475
     29 H          -4.4263   -1.0974    2.0880 H       1  LIG1        0.0475
     30 H          -3.5776   -3.2944   -1.2420 H       1  LIG1        0.0818
     31 H          -3.6414   -2.9972    0.5247 H       1  LIG1        0.0818
     32 H          -2.7178   -0.3289    1.1367 H       1  LIG1        0.0818
     33 H          -2.6767    0.5658   -0.4085 H       1  LIG1        0.0818
     34 H          -5.2234   -1.5779   -1.6974 H       1  LIG1        0.0379
     35 H          -5.0165    0.5156   -0.4626 H       1  LIG1        0.0379
     36 H          -1.5583   -2.2776    1.0960 H       1  LIG1        0.0777
     37 H          -0.9998   -2.9302   -0.4630 H       1  LIG1        0.0777
     38 H          -0.5729   -1.2682    0.0103 H       1  LIG1        0.0777
     39 H          -7.7550   -3.6010    0.4718 H       1  LIG1        0.1529
     40 H          -2.3902   -1.3378   -1.5645 H       1  LIG1        0.2000
@<TRIPOS>BOND
     1     1     2   ar
     2     1     6   ar
     3     2     7   ar
     4     3     5   ar
     5     3     7   ar
     6     4     5   ar
     7     4     8   ar
     8     5     6   ar
     9     6    17   ar
    10     7    21    1
    11     8     9    1
    12     8    17   ar
    13     9    18   am
    14     9    20    2
    15    10    14    1
    16    10    18    1
    17    11    15    1
    18    11    18    1
    19    12    14    1
    20    12    19    1
    21    13    15    1
    22    13    19    1
    23    14    15    1
    24    16    19    1
    25     1    22    1
    26     2    23    1
    27     3    24    1
    28     4    25    1
    29    10    26    1
    30    10    27    1
    31    11    28    1
    32    11    29    1
    33    12    30    1
    34    12    31    1
    35    13    32    1
    36    13    33    1
    37    14    34    1
    38    15    35    1
    39    16    36    1
    40    16    37    1
    41    16    38    1
    42    17    39    1
    43    19    40    1
