@<TRIPOS>MOLECULE
ChEBML300240
 47 49 0 0 0
SMALL
USER_CHARGES

@<TRIPOS>ATOM
      1 C         -10.3465   -5.1708    0.4644 C.ar    1  LIG1       -0.0387
      2 C         -11.6840   -5.5239    0.6649 C.ar    1  LIG1       -0.0416
      3 C         -12.0824   -3.5079    1.9589 C.ar    1  LIG1       -0.0343
      4 C          -9.9535   -2.0171    2.1805 C.ar    1  LIG1       -0.0262
      5 C         -10.7378   -3.1312    1.7702 C.ar    1  LIG1       -0.0007
      6 C          -9.9025   -3.9696    1.0288 C.ar    1  LIG1        0.0379
      7 C         -12.5404   -4.7068    1.4003 C.ar    1  LIG1        0.0413
      8 C          -8.6808   -2.1976    1.6898 C.ar    1  LIG1        0.0945
      9 C          -3.3559    0.5774   -5.5320 C.2     1  LIG1        0.2013
     10 C          -7.4979   -1.3126    1.8474 C.2     1  LIG1        0.2576
     11 C          -4.6246   -0.6214   -0.0685 C.2     1  LIG1        0.2316
     12 C          -3.7413    1.5140   -2.0872 C.3     1  LIG1       -0.0185
     13 C          -2.4965   -0.6735   -2.2785 C.3     1  LIG1       -0.0185
     14 C          -3.1897    1.9239   -3.4520 C.3     1  LIG1        0.0156
     15 C          -1.9640   -0.2282   -3.6399 C.3     1  LIG1        0.0156
     16 C          -2.8216    0.5181   -1.3673 C.3     1  LIG1        0.0280
     17 C          -2.6430    0.4055    1.0884 C.3     1  LIG1        0.0031
     18 C          -5.0917   -1.0115    1.3229 C.3     1  LIG1        0.0887
     19 N          -8.6600   -3.3778    0.9963 N.ar    1  LIG1       -0.3101
     20 N          -2.8543    0.7515   -4.2535 N.am    1  LIG1       -0.3043
     21 N          -6.3228   -1.7438    1.2398 N.am    1  LIG1       -0.3013
     22 N          -3.4034    0.0781   -0.1194 N.am    1  LIG1       -0.3004
     23 O          -3.1455   -0.3598   -6.2939 O.2     1  LIG1       -0.2812
     24 O          -7.6038   -0.2809    2.5053 O.2     1  LIG1       -0.2704
     25 O          -5.2922   -0.9146   -1.0639 O.2     1  LIG1       -0.2756
     26 CL        -14.1832   -5.1752    1.6244 Cl      1  LIG1       -0.0843
     27 H          -9.6806   -5.8082   -0.1078 H       1  LIG1        0.0643
     28 H         -12.0465   -6.4546    0.2337 H       1  LIG1        0.0639
     29 H         -12.7491   -2.8699    2.5332 H       1  LIG1        0.0645
     30 H         -10.2885   -1.1752    2.7717 H       1  LIG1        0.0651
     31 H          -4.0140    1.4087   -5.8335 H       1  LIG1        0.1274
     32 H          -3.9015    2.4074   -1.4725 H       1  LIG1        0.0302
     33 H          -4.7217    1.0419   -2.2314 H       1  LIG1        0.0302
     34 H          -3.4142   -1.2556   -2.4328 H       1  LIG1        0.0302
     35 H          -1.7692   -1.3400   -1.8000 H       1  LIG1        0.0302
     36 H          -3.9199    2.5468   -3.9796 H       1  LIG1        0.0470
     37 H          -2.2742    2.5158   -3.3393 H       1  LIG1        0.0470
     38 H          -0.9798    0.2433   -3.5371 H       1  LIG1        0.0470
     39 H          -1.8448   -1.0958   -4.2972 H       1  LIG1        0.0470
     40 H          -1.8891    1.0250   -1.0942 H       1  LIG1        0.0507
     41 H          -1.9416   -0.4001    1.3207 H       1  LIG1        0.0433
     42 H          -3.3199    0.5384    1.9367 H       1  LIG1        0.0433
     43 H          -2.0798    1.3310    0.9411 H       1  LIG1        0.0433
     44 H          -4.3537   -1.6588    1.8036 H       1  LIG1        0.0567
     45 H          -5.2792   -0.1193    1.9259 H       1  LIG1        0.0567
     46 H          -7.8513   -3.7623    0.5272 H       1  LIG1        0.1529
     47 H          -6.3045   -2.6454    0.7640 H       1  LIG1        0.1503
@<TRIPOS>BOND
     1     1     2   ar
     2     1     6   ar
     3     2     7   ar
     4     3     5   ar
     5     3     7   ar
     6     4     5   ar
     7     4     8   ar
     8     5     6   ar
     9     6    19   ar
    10     7    26    1
    11     8    10    1
    12     8    19   ar
    13     9    20   am
    14     9    23    2
    15    10    21   am
    16    10    24    2
    17    11    18    1
    18    11    22   am
    19    11    25    2
    20    12    14    1
    21    12    16    1
    22    13    15    1
    23    13    16    1
    24    14    20    1
    25    15    20    1
    26    16    22    1
    27    17    22    1
    28    18    21    1
    29     1    27    1
    30     2    28    1
    31     3    29    1
    32     4    30    1
    33     9    31    1
    34    12    32    1
    35    12    33    1
    36    13    34    1
    37    13    35    1
    38    14    36    1
    39    14    37    1
    40    15    38    1
    41    15    39    1
    42    16    40    1
    43    17    41    1
    44    17    42    1
    45    17    43    1
    46    18    44    1
    47    18    45    1
    48    19    46    1
    49    21    47    1
