@<TRIPOS>MOLECULE
ChEBML233370
 32 34 0 0 0
SMALL
USER_CHARGES

@<TRIPOS>ATOM
      1 C          -6.2827   -2.0917   -0.0322 C.ar    1  LIG1       -0.0495
      2 C          -5.1176   -0.9297    1.7370 C.ar    1  LIG1       -0.0495
      3 C         -10.3340   -5.1431    0.4434 C.ar    1  LIG1       -0.0376
      4 C         -11.6438   -5.5135    0.6456 C.ar    1  LIG1       -0.0299
      5 C          -5.0872   -2.2650   -0.6967 C.ar    1  LIG1       -0.0428
      6 C          -3.9277   -1.1146    1.0656 C.ar    1  LIG1       -0.0428
      7 C         -12.0429   -3.5384    1.9589 C.ar    1  LIG1       -0.0226
      8 C          -9.9521   -2.0351    2.1944 C.ar    1  LIG1       -0.0275
      9 C         -10.7093   -3.1510    1.7663 C.ar    1  LIG1        0.0003
     10 C          -6.3063   -1.4232    1.1941 C.ar    1  LIG1        0.0239
     11 C          -9.8505   -3.9619    0.9987 C.ar    1  LIG1        0.0379
     12 C         -12.4984   -4.7151    1.4042 C.ar    1  LIG1        0.0753
     13 C          -3.9109   -1.7780   -0.1505 C.ar    1  LIG1        0.0406
     14 C          -8.6911   -2.1757    1.7011 C.ar    1  LIG1        0.0797
     15 C          -7.5844   -1.2335    1.9111 C.2     1  LIG1        0.2066
     16 C         -13.9585   -6.3384    0.9070 C.3     1  LIG1        0.0422
     17 N          -8.6190   -3.3462    0.9713 N.ar    1  LIG1       -0.3112
     18 O          -7.7198   -0.2966    2.6757 O.2     1  LIG1       -0.2871
     19 O         -13.7899   -5.0963    1.5932 O.3     1  LIG1       -0.3493
     20 CL         -2.4095   -2.0003   -0.9932 Cl      1  LIG1       -0.0843
     21 H          -7.1990   -2.4722   -0.4589 H       1  LIG1        0.0631
     22 H          -5.1301   -0.4085    2.6827 H       1  LIG1        0.0631
     23 H          -9.6808   -5.7693   -0.1461 H       1  LIG1        0.0643
     24 H         -12.0131   -6.4315    0.2127 H       1  LIG1        0.0651
     25 H          -5.0676   -2.7820   -1.6448 H       1  LIG1        0.0638
     26 H          -3.0072   -0.7377    1.4866 H       1  LIG1        0.0638
     27 H         -12.7087   -2.9201    2.5426 H       1  LIG1        0.0657
     28 H         -10.3101   -1.2185    2.8038 H       1  LIG1        0.0651
     29 H         -14.9843   -6.6855    1.0308 H       1  LIG1        0.0535
     30 H         -13.7475   -6.1993   -0.1532 H       1  LIG1        0.0535
     31 H         -13.2724   -7.0778    1.3201 H       1  LIG1        0.0535
     32 H          -7.8307   -3.6798    0.5152 H       1  LIG1        0.1529
@<TRIPOS>BOND
     1     1     5   ar
     2     1    10   ar
     3     2     6   ar
     4     2    10   ar
     5     3     4   ar
     6     3    11   ar
     7     4    12   ar
     8     5    13   ar
     9     6    13   ar
    10     7     9   ar
    11     7    12   ar
    12     8     9   ar
    13     8    14   ar
    14     9    11   ar
    15    10    15    1
    16    11    17   ar
    17    12    19    1
    18    13    20    1
    19    14    15    1
    20    14    17   ar
    21    15    18    2
    22    16    19    1
    23     1    21    1
    24     2    22    1
    25     3    23    1
    26     4    24    1
    27     5    25    1
    28     6    26    1
    29     7    27    1
    30     8    28    1
    31    16    29    1
    32    16    30    1
    33    16    31    1
    34    17    32    1
