@<TRIPOS>MOLECULE
ChEBML212801
 39 41 0 0 0
SMALL
USER_CHARGES

@<TRIPOS>ATOM
      1 C         -11.4317   -5.6855    0.9000 C.ar    1  LIG1       -0.0574
      2 C         -10.0746   -5.3584    0.9714 C.ar    1  LIG1       -0.0399
      3 C         -12.0690   -3.4029    1.4302 C.ar    1  LIG1       -0.0501
      4 C         -10.0109   -1.8400    1.7855 C.ar    1  LIG1       -0.0262
      5 C         -10.7070   -3.0497    1.5077 C.ar    1  LIG1       -0.0019
      6 C         -12.4152   -4.7243    1.1255 C.ar    1  LIG1       -0.0504
      7 C          -9.7433   -4.0336    1.2770 C.ar    1  LIG1        0.0378
      8 C          -8.6630   -2.1082    1.7196 C.ar    1  LIG1        0.0947
      9 C          -7.5658   -1.2084    1.9249 C.2     1  LIG1        0.2602
     10 C          -6.4039   -2.1583   -0.1004 C.3     1  LIG1        0.0539
     11 C          -5.0607   -1.1562    1.7015 C.3     1  LIG1        0.0539
     12 C          -5.6940   -1.3028   -1.1394 C.3     1  LIG1       -0.0183
     13 C          -4.3190   -0.2883    0.6943 C.3     1  LIG1       -0.0183
     14 C         -13.8558   -5.1063    1.0415 C.3     1  LIG1       -0.0397
     15 C          -3.5040   -0.2224   -1.6657 C.3     1  LIG1       -0.0453
     16 N          -8.5116   -3.4337    1.4121 N.ar    1  LIG1       -0.3101
     17 N          -6.3960   -1.4939    1.2092 N.am    1  LIG1       -0.2863
     18 N          -4.2970   -0.9905   -0.6460 N.4     1  LIG1        0.2462
     19 O          -7.6774   -0.2522    2.6901 O.2     1  LIG1       -0.2701
     20 H         -11.7135   -6.7092    0.6639 H       1  LIG1        0.0626
     21 H          -9.3096   -6.1072    0.7958 H       1  LIG1        0.0643
     22 H         -12.8392   -2.6564    1.6053 H       1  LIG1        0.0632
     23 H         -10.4533   -0.8784    2.0094 H       1  LIG1        0.0651
     24 H          -7.4206   -2.3708   -0.4398 H       1  LIG1        0.0525
     25 H          -5.8950   -3.1223    0.0210 H       1  LIG1        0.0525
     26 H          -4.5252   -2.0980    1.8713 H       1  LIG1        0.0525
     27 H          -5.1203   -0.6360    2.6625 H       1  LIG1        0.0525
     28 H          -5.5966   -1.8394   -2.0884 H       1  LIG1        0.0831
     29 H          -6.2061   -0.3476   -1.3011 H       1  LIG1        0.0831
     30 H          -4.8136    0.6786    0.5486 H       1  LIG1        0.0831
     31 H          -3.2804   -0.1319    1.0029 H       1  LIG1        0.0831
     32 H         -14.2200   -5.4355    2.0218 H       1  LIG1        0.0280
     33 H         -14.4715   -4.2624    0.7058 H       1  LIG1        0.0280
     34 H         -14.0096   -5.9195    0.3208 H       1  LIG1        0.0280
     35 H          -4.0020    0.7361   -1.8231 H       1  LIG1        0.0777
     36 H          -2.4970   -0.0811   -1.2685 H       1  LIG1        0.0777
     37 H          -3.4844   -0.8101   -2.5855 H       1  LIG1        0.0777
     38 H          -7.6254   -3.9069    1.3000 H       1  LIG1        0.1529
     39 H          -3.8112   -1.8883   -0.5131 H       1  LIG1        0.2001
@<TRIPOS>BOND
     1     1     2   ar
     2     1     6   ar
     3     2     7   ar
     4     3     5   ar
     5     3     6   ar
     6     4     5   ar
     7     4     8   ar
     8     5     7   ar
     9     6    14    1
    10     7    16   ar
    11     8     9    1
    12     8    16   ar
    13     9    17   am
    14     9    19    2
    15    10    12    1
    16    10    17    1
    17    11    13    1
    18    11    17    1
    19    12    18    1
    20    13    18    1
    21    15    18    1
    22     1    20    1
    23     2    21    1
    24     3    22    1
    25     4    23    1
    26    10    24    1
    27    10    25    1
    28    11    26    1
    29    11    27    1
    30    12    28    1
    31    12    29    1
    32    13    30    1
    33    13    31    1
    34    14    32    1
    35    14    33    1
    36    14    34    1
    37    15    35    1
    38    15    36    1
    39    15    37    1
    40    16    38    1
    41    18    39    1
