@<TRIPOS>MOLECULE
ChEBML331733
 33 35 0 0 0
SMALL
USER_CHARGES

@<TRIPOS>ATOM
      1 C         -12.1197   -3.7460    1.7540 C.ar    1  LIG1       -0.0457
      2 C         -10.0462   -2.0295    2.0303 C.ar    1  LIG1       -0.0256
      3 C         -12.3706   -4.9547    1.2326 C.ar    1  LIG1       -0.0222
      4 C         -10.7721   -3.1982    1.6563 C.ar    1  LIG1        0.0053
      5 C          -8.7596   -2.1763    1.6108 C.ar    1  LIG1        0.0951
      6 C          -9.8441   -4.0177    1.0057 C.ar    1  LIG1        0.0762
      7 C          -7.6836   -1.1995    1.7954 C.2     1  LIG1        0.2602
      8 C          -5.4282   -0.3838    1.2780 C.3     1  LIG1        0.0539
      9 C          -6.5267   -2.1539   -0.1462 C.3     1  LIG1        0.0539
     10 C          -5.0456    0.3372   -0.0187 C.3     1  LIG1       -0.0183
     11 C          -6.0921   -1.3493   -1.3757 C.3     1  LIG1       -0.0183
     12 C          -4.3606    0.0301   -2.2954 C.3     1  LIG1       -0.0453
     13 N          -8.6396   -3.4001    0.9753 N.ar    1  LIG1       -0.3045
     14 N          -6.5908   -1.2438    1.0078 N.am    1  LIG1       -0.2863
     15 N          -4.8336   -0.6518   -1.0833 N.4     1  LIG1        0.2462
     16 O          -7.7763   -0.3480    2.6603 O.2     1  LIG1       -0.2701
     17 S         -10.7939   -5.4499    0.5644 S.2     1  LIG1       -0.0819
     18 H         -12.9046   -3.1857    2.2400 H       1  LIG1        0.0635
     19 H         -10.4475   -1.1757    2.5560 H       1  LIG1        0.0651
     20 H         -13.3038   -5.4980    1.2201 H       1  LIG1        0.0701
     21 H          -4.5919   -0.9947    1.6179 H       1  LIG1        0.0525
     22 H          -5.6848    0.3493    2.0428 H       1  LIG1        0.0525
     23 H          -5.8013   -2.9435    0.0499 H       1  LIG1        0.0525
     24 H          -7.5094   -2.5910   -0.3230 H       1  LIG1        0.0525
     25 H          -4.1283    0.9047    0.1380 H       1  LIG1        0.0831
     26 H          -5.8482    1.0158   -0.3076 H       1  LIG1        0.0831
     27 H          -6.8630   -0.6197   -1.6236 H       1  LIG1        0.0831
     28 H          -5.9461   -2.0245   -2.2188 H       1  LIG1        0.0831
     29 H          -5.1095    0.7517   -2.6220 H       1  LIG1        0.0777
     30 H          -3.4264    0.5484   -2.0797 H       1  LIG1        0.0777
     31 H          -4.1952   -0.7039   -3.0841 H       1  LIG1        0.0777
     32 H          -7.8297   -3.7558    0.5775 H       1  LIG1        0.1535
     33 H          -4.1410   -1.3215   -0.7836 H       1  LIG1        0.2001
@<TRIPOS>BOND
     1     1     3   ar
     2     1     4   ar
     3     2     4   ar
     4     2     5   ar
     5     3    17   ar
     6     4     6   ar
     7     5     7    1
     8     5    13   ar
     9     6    13   ar
    10     6    17   ar
    11     7    14   am
    12     7    16    2
    13     8    10    1
    14     8    14    1
    15     9    11    1
    16     9    14    1
    17    10    15    1
    18    11    15    1
    19    12    15    1
    20     1    18    1
    21     2    19    1
    22     3    20    1
    23     8    21    1
    24     8    22    1
    25     9    23    1
    26     9    24    1
    27    10    25    1
    28    10    26    1
    29    11    27    1
    30    11    28    1
    31    12    29    1
    32    12    30    1
    33    12    31    1
    34    13    32    1
    35    15    33    1
