@<TRIPOS>MOLECULE
ChEBML884260
 50 52 0 0 0
SMALL
USER_CHARGES

@<TRIPOS>ATOM
      1 C         -10.3571   -5.1549    0.7762 C.ar    1  LIG1       -0.0389
      2 C         -10.7783   -2.8507    1.3681 C.ar    1  LIG1       -0.0389
      3 C         -11.7235   -5.3540    0.5789 C.ar    1  LIG1       -0.0391
      4 C         -12.1447   -3.0498    1.1707 C.ar    1  LIG1       -0.0391
      5 C          -1.8457   -0.5707   -2.7760 C.ar    1  LIG1       -0.0262
      6 C          -3.1651    1.4075   -2.8303 C.ar    1  LIG1        0.0414
      7 C          -2.0273    0.7288   -3.2360 C.ar    1  LIG1        0.0754
      8 C          -9.8845   -3.9032    1.1709 C.ar    1  LIG1        0.0317
      9 C         -12.6173   -4.3014    0.7760 C.ar    1  LIG1        0.0282
     10 C          -2.7941   -1.1437   -1.9361 C.ar    1  LIG1        0.0815
     11 C          -3.8975   -0.3813   -1.5883 C.ar    1  LIG1        0.1388
     12 C          -7.7950   -2.5954    1.7736 C.2     1  LIG1        0.1359
     13 C          -5.1562   -0.3176    0.5279 C.3     1  LIG1        0.0288
     14 C          -5.5733   -2.1325   -1.1533 C.3     1  LIG1        0.0288
     15 C          -5.6800   -1.3712    1.5046 C.3     1  LIG1        0.0290
     16 C          -6.9530   -2.1564   -0.4944 C.3     1  LIG1        0.0290
     17 C         -14.4993   -5.7997    0.1646 C.3     1  LIG1       -0.0003
     18 C         -14.9374   -3.4198    0.7912 C.3     1  LIG1       -0.0003
     19 C          -1.0315    1.3703   -4.1353 C.3     1  LIG1        0.4175
     20 N          -4.1084    0.8840   -2.0153 N.ar    1  LIG1       -0.2392
     21 N          -4.8380   -0.9271   -0.7652 N.pl3   1  LIG1       -0.3115
     22 N          -6.8479   -2.0648    0.9617 N.am    1  LIG1       -0.3099
     23 N          -8.4974   -3.7019    1.3727 N.am    1  LIG1       -0.2969
     24 N         -13.9988   -4.5031    0.5755 N.pl3   1  LIG1       -0.3369
     25 F           0.0330    0.5680   -4.4412 F       1  LIG1       -0.1661
     26 F          -1.5453    1.7499   -5.3445 F       1  LIG1       -0.1661
     27 F          -0.4884    2.5043   -3.6003 F       1  LIG1       -0.1661
     28 S          -8.0537   -1.9433    3.2975 S.2     1  LIG1       -0.0183
     29 CL         -2.5540   -2.7550   -1.3750 Cl      1  LIG1       -0.0805
     30 H          -9.6696   -5.9824    0.6199 H       1  LIG1        0.0643
     31 H         -10.4210   -1.8712    1.6756 H       1  LIG1        0.0643
     32 H         -12.0812   -6.3335    0.2715 H       1  LIG1        0.0643
     33 H         -12.8327   -2.2233    1.3277 H       1  LIG1        0.0643
     34 H          -0.9629   -1.1304   -3.0761 H       1  LIG1        0.0646
     35 H          -3.3605    2.4241   -3.1572 H       1  LIG1        0.0847
     36 H          -5.9043    0.4703    0.3788 H       1  LIG1        0.0485
     37 H          -4.2624    0.1497    0.9589 H       1  LIG1        0.0485
     38 H          -4.9941   -3.0160   -0.8587 H       1  LIG1        0.0485
     39 H          -5.7019   -2.1675   -2.2418 H       1  LIG1        0.0485
     40 H          -4.9157   -2.1345    1.6951 H       1  LIG1        0.0485
     41 H          -5.9419   -0.9185    2.4672 H       1  LIG1        0.0485
     42 H          -7.5539   -1.3006   -0.8256 H       1  LIG1        0.0485
     43 H          -7.4999   -3.0670   -0.7615 H       1  LIG1        0.0485
     44 H         -15.5867   -5.7667    0.0597 H       1  LIG1        0.0432
     45 H         -14.2402   -6.5579    0.9087 H       1  LIG1        0.0432
     46 H         -14.0617   -6.0869   -0.7952 H       1  LIG1        0.0432
     47 H         -15.9563   -3.7596    0.5882 H       1  LIG1        0.0432
     48 H         -14.7069   -2.5821    0.1273 H       1  LIG1        0.0432
     49 H         -14.8820   -3.0722    1.8263 H       1  LIG1        0.0432
     50 H          -7.9250   -4.5268    1.2058 H       1  LIG1        0.1546
@<TRIPOS>BOND
     1     1     3   ar
     2     1     8   ar
     3     2     4   ar
     4     2     8   ar
     5     3     9   ar
     6     4     9   ar
     7     5     7   ar
     8     5    10   ar
     9     6     7   ar
    10     6    20   ar
    11     7    19    1
    12     8    23    1
    13     9    24    1
    14    10    11   ar
    15    10    29    1
    16    11    20   ar
    17    11    21    1
    18    12    22    1
    19    12    23    1
    20    12    28    2
    21    13    15    1
    22    13    21    1
    23    14    16    1
    24    14    21    1
    25    15    22    1
    26    16    22    1
    27    17    24    1
    28    18    24    1
    29    19    25    1
    30    19    26    1
    31    19    27    1
    32     1    30    1
    33     2    31    1
    34     3    32    1
    35     4    33    1
    36     5    34    1
    37     6    35    1
    38    13    36    1
    39    13    37    1
    40    14    38    1
    41    14    39    1
    42    15    40    1
    43    15    41    1
    44    16    42    1
    45    16    43    1
    46    17    44    1
    47    17    45    1
    48    17    46    1
    49    18    47    1
    50    18    48    1
    51    18    49    1
    52    23    50    1
