@<TRIPOS>MOLECULE
ChEBML319111
 38 41 0 0 0
SMALL
USER_CHARGES

@<TRIPOS>ATOM
      1 C         -12.5772   -5.1696    0.8450 C.ar    1  LIG1       -0.0616
      2 C          -2.5686    0.9740   -3.2497 C.ar    1  LIG1       -0.0616
      3 C         -11.4432   -5.6613    0.2055 C.ar    1  LIG1       -0.0616
      4 C          -2.0590   -0.2756   -2.9091 C.ar    1  LIG1       -0.0616
      5 C         -12.5049   -3.9900    1.5864 C.ar    1  LIG1       -0.0544
      6 C          -3.7200    1.4529   -2.6241 C.ar    1  LIG1       -0.0544
      7 C         -10.2324   -4.9752    0.3051 C.ar    1  LIG1       -0.0543
      8 C          -2.6988   -1.0509   -1.9417 C.ar    1  LIG1       -0.0543
      9 C         -11.2036   -2.0975    2.4395 C.ar    1  LIG1       -0.0536
     10 C          -5.5369    1.1523   -1.0082 C.ar    1  LIG1       -0.0536
     11 C          -9.9928   -1.4115    2.5390 C.ar    1  LIG1       -0.0503
     12 C          -6.1768    0.3770   -0.0409 C.ar    1  LIG1       -0.0503
     13 C          -8.9310   -3.0829    1.1581 C.ar    1  LIG1       -0.0430
     14 C          -4.5159   -1.3516   -0.3259 C.ar    1  LIG1       -0.0430
     15 C         -11.2946   -3.2864    1.6974 C.ar    1  LIG1       -0.0183
     16 C          -4.3770    0.6859   -1.6481 C.ar    1  LIG1       -0.0183
     17 C         -10.1413   -3.7864    1.0472 C.ar    1  LIG1       -0.0176
     18 C          -3.8588   -0.5846   -1.3018 C.ar    1  LIG1       -0.0176
     19 C          -8.8587   -1.9032    1.8995 C.ar    1  LIG1        0.0266
     20 C          -5.6673   -0.8726    0.2997 C.ar    1  LIG1        0.0266
     21 C          -7.5966   -1.1887    2.0060 C.2     1  LIG1        0.2330
     22 C          -6.3486   -1.6956    1.3246 C.2     1  LIG1        0.2330
     23 O          -7.4484   -0.1305    2.6292 O.2     1  LIG1       -0.2848
     24 O          -5.9512   -2.7996    1.6675 O.2     1  LIG1       -0.2848
     25 H         -13.5192   -5.7050    0.7684 H       1  LIG1        0.0623
     26 H          -2.0708    1.5764   -4.0040 H       1  LIG1        0.0623
     27 H         -11.5002   -6.5794   -0.3720 H       1  LIG1        0.0623
     28 H          -1.1623   -0.6475   -3.3961 H       1  LIG1        0.0623
     29 H         -13.4038   -3.6250    2.0792 H       1  LIG1        0.0629
     30 H          -4.1014    2.4319   -2.9071 H       1  LIG1        0.0629
     31 H          -9.3592   -5.3775   -0.2045 H       1  LIG1        0.0629
     32 H          -2.2817   -2.0238   -1.6905 H       1  LIG1        0.0629
     33 H         -12.0778   -1.6947    2.9468 H       1  LIG1        0.0629
     34 H          -5.9521    2.1265   -1.2584 H       1  LIG1        0.0629
     35 H          -9.9484   -0.4934    3.1195 H       1  LIG1        0.0630
     36 H          -7.0733    0.7604    0.4399 H       1  LIG1        0.0630
     37 H          -8.0373   -3.4592    0.6625 H       1  LIG1        0.0637
     38 H          -4.1262   -2.3310   -0.0525 H       1  LIG1        0.0637
@<TRIPOS>BOND
     1     1     3   ar
     2     1     5   ar
     3     2     4   ar
     4     2     6   ar
     5     3     7   ar
     6     4     8   ar
     7     5    15   ar
     8     6    16   ar
     9     7    17   ar
    10     8    18   ar
    11     9    11   ar
    12     9    15   ar
    13    10    12   ar
    14    10    16   ar
    15    11    19   ar
    16    12    20   ar
    17    13    17   ar
    18    13    19   ar
    19    14    18   ar
    20    14    20   ar
    21    15    17   ar
    22    16    18   ar
    23    19    21    1
    24    20    22    1
    25    21    22    1
    26    21    23    2
    27    22    24    2
    28     1    25    1
    29     2    26    1
    30     3    27    1
    31     4    28    1
    32     5    29    1
    33     6    30    1
    34     7    31    1
    35     8    32    1
    36     9    33    1
    37    10    34    1
    38    11    35    1
    39    12    36    1
    40    13    37    1
    41    14    38    1
