@<TRIPOS>MOLECULE
ChEBML762923
 32 34 0 0 0
SMALL
USER_CHARGES

@<TRIPOS>ATOM
      1 C         -12.9250   -4.7019    1.0453 C.ar    1  LIG1       -0.0616
      2 C         -12.0860   -5.4537    0.2282 C.ar    1  LIG1       -0.0616
      3 C         -12.4128   -3.6260    1.7710 C.ar    1  LIG1       -0.0544
      4 C         -10.7317   -5.1325    0.1334 C.ar    1  LIG1       -0.0543
      5 C         -10.5195   -2.2087    2.4110 C.ar    1  LIG1       -0.0518
      6 C          -9.1651   -1.8876    2.3163 C.ar    1  LIG1       -0.0311
      7 C          -8.8382   -3.7154    0.7735 C.ar    1  LIG1       -0.0239
      8 C          -3.0564    1.2545   -2.6721 C.ar    1  LIG1        0.0364
      9 C          -2.1223    0.3756   -3.1789 C.ar    1  LIG1       -0.0029
     10 C         -11.0520   -3.2884    1.6877 C.ar    1  LIG1       -0.0182
     11 C         -10.1989   -4.0530    0.8567 C.ar    1  LIG1       -0.0158
     12 C          -8.3261   -2.6394    1.4991 C.ar    1  LIG1        0.0763
     13 C          -3.8669   -0.6051   -1.8386 C.ar    1  LIG1        0.1633
     14 C          -5.8012   -1.3343   -0.4060 C.2     1  LIG1        0.2441
     15 C          -6.3513   -2.6191    0.1741 C.3     1  LIG1        0.1303
     16 N          -4.0579    0.6939   -1.9037 N.ar    1  LIG1       -0.2339
     17 N          -4.6545   -1.5623   -1.1559 N.am    1  LIG1       -0.2622
     18 O          -6.3583   -0.2630   -0.1863 O.2     1  LIG1       -0.2745
     19 O          -7.0051   -2.3246    1.4077 O.3     1  LIG1       -0.3364
     20 S          -2.5022   -1.2200   -2.6778 S.2     1  LIG1       -0.0606
     21 H         -13.9789   -4.9530    1.1191 H       1  LIG1        0.0623
     22 H         -12.4852   -6.2911   -0.3370 H       1  LIG1        0.0623
     23 H         -13.0861   -3.0519    2.4040 H       1  LIG1        0.0629
     24 H         -10.0943   -5.7345   -0.5111 H       1  LIG1        0.0629
     25 H         -11.1567   -1.6077    3.0565 H       1  LIG1        0.0630
     26 H          -8.7714   -1.0489    2.8841 H       1  LIG1        0.0650
     27 H          -8.1686   -4.2930    0.1387 H       1  LIG1        0.0657
     28 H          -3.0519    2.3240   -2.8337 H       1  LIG1        0.0846
     29 H          -1.2617    0.5879   -3.7970 H       1  LIG1        0.0718
     30 H          -7.0642   -3.0715   -0.5219 H       1  LIG1        0.0674
     31 H          -5.5451   -3.3358    0.3568 H       1  LIG1        0.0674
     32 H          -4.3449   -2.5296   -1.2220 H       1  LIG1        0.1578
@<TRIPOS>BOND
     1     1     2   ar
     2     1     3   ar
     3     2     4   ar
     4     3    10   ar
     5     4    11   ar
     6     5     6   ar
     7     5    10   ar
     8     6    12   ar
     9     7    11   ar
    10     7    12   ar
    11     8     9   ar
    12     8    16   ar
    13     9    20   ar
    14    10    11   ar
    15    12    19    1
    16    13    16   ar
    17    13    17    1
    18    13    20   ar
    19    14    15    1
    20    14    17   am
    21    14    18    2
    22    15    19    1
    23     1    21    1
    24     2    22    1
    25     3    23    1
    26     4    24    1
    27     5    25    1
    28     6    26    1
    29     7    27    1
    30     8    28    1
    31     9    29    1
    32    15    30    1
    33    15    31    1
    34    17    32    1
