@<TRIPOS>MOLECULE
ChEBML212671
 38 40 0 0 0
SMALL
USER_CHARGES

@<TRIPOS>ATOM
      1 C         -12.5734   -4.6172    1.2700 C.ar    1  LIG1       -0.0597
      2 C         -12.1381   -3.3862    1.6647 C.ar    1  LIG1       -0.0529
      3 C         -11.6748   -5.5763    0.8209 C.ar    1  LIG1       -0.0394
      4 C         -10.0225   -1.9232    1.9508 C.ar    1  LIG1       -0.0261
      5 C         -10.7702   -3.0787    1.6187 C.ar    1  LIG1       -0.0003
      6 C          -9.8537   -4.0442    1.1647 C.ar    1  LIG1        0.0589
      7 C         -10.3211   -5.3003    0.7656 C.ar    1  LIG1        0.0457
      8 C          -8.7136   -2.1918    1.7037 C.ar    1  LIG1        0.0947
      9 C          -7.5971   -1.2575    1.9127 C.2     1  LIG1        0.2602
     10 C          -5.2486   -0.6289    1.5829 C.3     1  LIG1        0.0539
     11 C          -6.2982   -2.4822    0.2298 C.3     1  LIG1        0.0539
     12 C          -4.6766   -0.0774    0.2728 C.3     1  LIG1       -0.0183
     13 C          -5.6767   -1.8432   -1.0165 C.3     1  LIG1       -0.0183
     14 C          -3.7650   -0.6707   -1.8635 C.3     1  LIG1       -0.0453
     15 N          -8.5999   -3.4797    1.2195 N.ar    1  LIG1       -0.3086
     16 N          -6.4290   -1.4483    1.2680 N.am    1  LIG1       -0.2863
     17 N          -9.4236   -6.2725    0.3129 N.pl3   1  LIG1       -0.3567
     18 N          -4.4145   -1.1878   -0.6516 N.4     1  LIG1        0.2462
     19 O          -7.7280   -0.3126    2.6674 O.2     1  LIG1       -0.2701
     20 H         -13.6276   -4.8485    1.3075 H       1  LIG1        0.0623
     21 H         -12.8462   -2.6487    2.0128 H       1  LIG1        0.0629
     22 H         -12.0365   -6.5461    0.5125 H       1  LIG1        0.0643
     23 H         -10.4211   -0.9948    2.3324 H       1  LIG1        0.0651
     24 H          -4.4982   -1.2435    2.0801 H       1  LIG1        0.0525
     25 H          -5.5388    0.1971    2.2322 H       1  LIG1        0.0525
     26 H          -5.6538   -3.2840    0.5904 H       1  LIG1        0.0525
     27 H          -7.2823   -2.8817   -0.0154 H       1  LIG1        0.0525
     28 H          -3.7464    0.4528    0.4770 H       1  LIG1        0.0831
     29 H          -5.3947    0.6083   -0.1771 H       1  LIG1        0.0831
     30 H          -6.3645   -1.1042   -1.4274 H       1  LIG1        0.0831
     31 H          -5.4835   -2.6143   -1.7623 H       1  LIG1        0.0831
     32 H          -4.4226    0.0504   -2.3487 H       1  LIG1        0.0777
     33 H          -2.8278   -0.1839   -1.5940 H       1  LIG1        0.0777
     34 H          -3.5626   -1.4952   -2.5471 H       1  LIG1        0.0777
     35 H          -7.7723   -3.9156    0.9624 H       1  LIG1        0.1530
     36 H          -9.7503   -7.1431    0.0366 H       1  LIG1        0.1427
     37 H          -8.4744   -6.0764    0.2750 H       1  LIG1        0.1427
     38 H          -3.8060   -1.8574   -0.2050 H       1  LIG1        0.2001
@<TRIPOS>BOND
     1     1     2   ar
     2     1     3   ar
     3     2     5   ar
     4     3     7   ar
     5     4     5   ar
     6     4     8   ar
     7     5     6   ar
     8     6     7   ar
     9     6    15   ar
    10     7    17    1
    11     8     9    1
    12     8    15   ar
    13     9    16   am
    14     9    19    2
    15    10    12    1
    16    10    16    1
    17    11    13    1
    18    11    16    1
    19    12    18    1
    20    13    18    1
    21    14    18    1
    22     1    20    1
    23     2    21    1
    24     3    22    1
    25     4    23    1
    26    10    24    1
    27    10    25    1
    28    11    26    1
    29    11    27    1
    30    12    28    1
    31    12    29    1
    32    13    30    1
    33    13    31    1
    34    14    32    1
    35    14    33    1
    36    14    34    1
    37    15    35    1
    38    17    36    1
    39    17    37    1
    40    18    38    1
