@<TRIPOS>MOLECULE
ChEBML1101333
 56 60 0 0 0
SMALL
USER_CHARGES

@<TRIPOS>ATOM
      1 C         -12.6217   -4.3726    0.8448 C.ar    1  LIG1       -0.0615
      2 C         -11.9354   -5.5727    1.0190 C.ar    1  LIG1       -0.0603
      3 C         -11.9998   -3.1468    1.1087 C.ar    1  LIG1       -0.0528
      4 C         -10.6094   -5.5871    1.4611 C.ar    1  LIG1       -0.0402
      5 C          -2.4630    0.1353   -3.1015 C.ar    1  LIG1       -0.0042
      6 C          -3.4301    1.1010   -2.7643 C.ar    1  LIG1        0.0486
      7 C         -10.6634   -3.1363    1.5554 C.ar    1  LIG1        0.0004
      8 C          -9.7445   -2.1091    1.9095 C.ar    1  LIG1       -0.0194
      9 C         -10.0004   -4.3543    1.7211 C.ar    1  LIG1        0.0378
     10 C          -8.5636   -2.7120    2.2765 C.ar    1  LIG1        0.0553
     11 C          -2.7123   -0.9126   -2.2494 C.ar    1  LIG1        0.1133
     12 C          -0.9874   -2.6453   -2.8381 C.2     1  LIG1        0.2201
     13 C           0.8141   -4.2863   -1.9490 C.3     1  LIG1       -0.0411
     14 C          -0.2913   -4.2639   -0.9343 C.3     1  LIG1       -0.0411
     15 C          -4.2917   -0.5548    0.9138 C.3     1  LIG1        0.0073
     16 C          -5.8837   -1.5609   -0.7831 C.3     1  LIG1        0.0073
     17 C          -5.0208   -1.3029    2.0221 C.3     1  LIG1       -0.0321
     18 C          -6.5973   -2.2981    0.3426 C.3     1  LIG1       -0.0321
     19 C          -0.5988   -4.0300   -2.3844 C.3     1  LIG1        0.0362
     20 C          -4.4135   -1.2875   -0.4310 C.3     1  LIG1        0.0569
     21 C         -10.0092   -0.6553    1.8891 C.3     1  LIG1       -0.0374
     22 C          -7.2613   -2.1281    2.7394 C.3     1  LIG1        0.0053
     23 N          -4.2342    0.7020   -1.7752 N.ar    1  LIG1       -0.1880
     24 N          -8.7275   -4.0662    2.1594 N.ar    1  LIG1       -0.3133
     25 N          -3.7727   -0.5261   -1.4837 N.ar    1  LIG1       -0.2080
     26 N          -2.0904   -2.1244   -2.1155 N.am    1  LIG1       -0.2719
     27 N          -6.4631   -1.5101    1.6242 N.4     1  LIG1        0.2503
     28 O          -0.3722   -2.0837   -3.7387 O.2     1  LIG1       -0.2769
     29 H         -13.6519   -4.3872    0.4992 H       1  LIG1        0.0623
     30 H         -12.4380   -6.5132    0.8083 H       1  LIG1        0.0623
     31 H         -12.5485   -2.2201    0.9676 H       1  LIG1        0.0630
     32 H         -10.0751   -6.5218    1.5960 H       1  LIG1        0.0642
     33 H          -1.6936    0.1949   -3.8576 H       1  LIG1        0.0674
     34 H          -3.5824    2.0789   -3.1982 H       1  LIG1        0.0858
     35 H           1.5062   -3.4531   -1.9580 H       1  LIG1        0.0275
     36 H           1.2639   -5.2439   -2.1818 H       1  LIG1        0.0275
     37 H          -0.5808   -5.2063   -0.4855 H       1  LIG1        0.0275
     38 H          -0.3436   -3.4145   -0.2640 H       1  LIG1        0.0275
     39 H          -4.7011    0.4604    0.8254 H       1  LIG1        0.0340
     40 H          -3.2347   -0.4398    1.1838 H       1  LIG1        0.0340
     41 H          -5.9446   -2.1533   -1.7041 H       1  LIG1        0.0340
     42 H          -6.4020   -0.6145   -0.9885 H       1  LIG1        0.0340
     43 H          -4.5806   -2.2888    2.2084 H       1  LIG1        0.0815
     44 H          -5.0155   -0.7182    2.9477 H       1  LIG1        0.0815
     45 H          -7.6660   -2.3928    0.1240 H       1  LIG1        0.0815
     46 H          -6.1687   -3.2914    0.5156 H       1  LIG1        0.0815
     47 H          -1.0986   -4.8348   -2.9128 H       1  LIG1        0.0401
     48 H          -3.8647   -2.2354   -0.3840 H       1  LIG1        0.0532
     49 H         -10.4048   -0.3117    2.8583 H       1  LIG1        0.0280
     50 H          -9.0980   -0.0735    1.6721 H       1  LIG1        0.0280
     51 H         -10.7405   -0.3807    1.1106 H       1  LIG1        0.0280
     52 H          -7.4226   -1.3413    3.4840 H       1  LIG1        0.0882
     53 H          -6.6243   -2.8936    3.1953 H       1  LIG1        0.0882
     54 H          -8.0193   -4.7578    2.3640 H       1  LIG1        0.1527
     55 H          -2.4531   -2.7753   -1.3919 H       1  LIG1        0.1569
     56 H          -6.8714   -0.5804    1.4563 H       1  LIG1        0.2007
@<TRIPOS>BOND
     1     1     2   ar
     2     1     3   ar
     3     2     4   ar
     4     3     7   ar
     5     4     9   ar
     6     5     6   ar
     7     5    11   ar
     8     6    23   ar
     9     7     8   ar
    10     7     9   ar
    11     8    10   ar
    12     8    21    1
    13     9    24   ar
    14    10    22    1
    15    10    24   ar
    16    11    25   ar
    17    11    26    1
    18    12    19    1
    19    12    26   am
    20    12    28    2
    21    13    14    1
    22    13    19    1
    23    14    19    1
    24    15    17    1
    25    15    20    1
    26    16    18    1
    27    16    20    1
    28    17    27    1
    29    18    27    1
    30    20    25    1
    31    22    27    1
    32    23    25   ar
    33     1    29    1
    34     2    30    1
    35     3    31    1
    36     4    32    1
    37     5    33    1
    38     6    34    1
    39    13    35    1
    40    13    36    1
    41    14    37    1
    42    14    38    1
    43    15    39    1
    44    15    40    1
    45    16    41    1
    46    16    42    1
    47    17    43    1
    48    17    44    1
    49    18    45    1
    50    18    46    1
    51    19    47    1
    52    20    48    1
    53    21    49    1
    54    21    50    1
    55    21    51    1
    56    22    52    1
    57    22    53    1
    58    24    54    1
    59    26    55    1
    60    27    56    1
