@<TRIPOS>MOLECULE
ChEBML345575
 38 40 0 0 0
SMALL
USER_CHARGES

@<TRIPOS>ATOM
      1 C          -2.6654    1.0696   -3.3822 C.ar    1  LIG1       -0.0615
      2 C          -3.0365   -0.2619   -3.5697 C.ar    1  LIG1       -0.0604
      3 C          -2.6982    1.6295   -2.1050 C.ar    1  LIG1       -0.0481
      4 C         -10.7731   -4.8195    0.0942 C.ar    1  LIG1       -0.0387
      5 C          -3.4404   -1.0334   -2.4801 C.ar    1  LIG1       -0.0389
      6 C         -12.0387   -5.2428    0.5104 C.ar    1  LIG1       -0.0416
      7 C         -12.1036   -3.5391    2.2395 C.ar    1  LIG1       -0.0343
      8 C          -9.9527   -2.0640    2.2805 C.ar    1  LIG1       -0.0261
      9 C         -10.8283   -3.0947    1.8379 C.ar    1  LIG1       -0.0007
     10 C          -3.1022    0.8580   -1.0155 C.ar    1  LIG1        0.0780
     11 C         -10.1937   -3.7440    0.7767 C.ar    1  LIG1        0.0379
     12 C          -3.4733   -0.4734   -1.2030 C.ar    1  LIG1        0.0680
     13 C         -12.6955   -4.6138    1.5662 C.ar    1  LIG1        0.0413
     14 C          -8.8244   -2.1068    1.4942 C.ar    1  LIG1        0.0961
     15 C          -7.6667   -1.2720    1.5586 C.2     1  LIG1        0.2743
     16 C          -3.1277    1.4882    0.3388 C.3     1  LIG1        0.4178
     17 N          -8.9792   -3.1231    0.5900 N.ar    1  LIG1       -0.3100
     18 N          -6.6343   -1.5154    0.6367 N.am    1  LIG1       -0.2197
     19 N          -5.4335   -0.7046    0.6369 N.3     1  LIG1       -0.2074
     20 O          -7.5675   -0.3455    2.4013 O.2     1  LIG1       -0.2687
     21 O          -3.0064   -1.3441    1.2113 O.2     1  LIG1       -0.4750
     22 O          -4.3121   -2.7885   -0.3822 O.2     1  LIG1       -0.4750
     23 F          -2.7356    2.7957    0.3389 F       1  LIG1       -0.1660
     24 F          -4.3639    1.4849    0.9174 F       1  LIG1       -0.1660
     25 F          -2.3048    0.8570    1.2246 F       1  LIG1       -0.1660
     26 S          -3.9924   -1.4802    0.1561 S.O2    1  LIG1       -0.1520
     27 CL        -14.2555   -5.1634    2.0490 Cl      1  LIG1       -0.0843
     28 H          -2.3516    1.6699   -4.2312 H       1  LIG1        0.0623
     29 H          -3.0119   -0.6974   -4.5643 H       1  LIG1        0.0623
     30 H          -2.4071    2.6677   -1.9700 H       1  LIG1        0.0629
     31 H         -10.2625   -5.3105   -0.7275 H       1  LIG1        0.0643
     32 H          -3.7276   -2.0696   -2.6397 H       1  LIG1        0.0642
     33 H         -12.5044   -6.0781   -0.0084 H       1  LIG1        0.0639
     34 H         -12.6146   -3.0478    3.0635 H       1  LIG1        0.0645
     35 H         -10.1330   -1.3673    3.0883 H       1  LIG1        0.0651
     36 H          -8.3020   -3.3830   -0.1139 H       1  LIG1        0.1529
     37 H          -6.6734   -2.2590   -0.0517 H       1  LIG1        0.1755
     38 H          -5.3907    0.0423    1.3411 H       1  LIG1        0.1892
@<TRIPOS>BOND
     1     1     2   ar
     2     1     3   ar
     3     2     5   ar
     4     3    10   ar
     5     4     6   ar
     6     4    11   ar
     7     5    12   ar
     8     6    13   ar
     9     7     9   ar
    10     7    13   ar
    11     8     9   ar
    12     8    14   ar
    13     9    11   ar
    14    10    12   ar
    15    10    16    1
    16    11    17   ar
    17    12    26    1
    18    13    27    1
    19    14    15    1
    20    14    17   ar
    21    15    18   am
    22    15    20    2
    23    16    23    1
    24    16    24    1
    25    16    25    1
    26    18    19    1
    27    19    26    1
    28    21    26    2
    29    22    26    2
    30     1    28    1
    31     2    29    1
    32     3    30    1
    33     4    31    1
    34     5    32    1
    35     6    33    1
    36     7    34    1
    37     8    35    1
    38    17    36    1
    39    18    37    1
    40    19    38    1
