@<TRIPOS>MOLECULE
ChEBML1074815
 50 54 0 0 0
SMALL
USER_CHARGES

@<TRIPOS>ATOM
      1 C         -12.0639   -3.6810    2.0472 C.ar    1  LIG1       -0.0528
      2 C         -12.5296   -4.8325    1.4021 C.ar    1  LIG1       -0.0586
      3 C          -3.6942   -0.9604    0.4557 C.ar    1  LIG1       -0.0742
      4 C          -4.2908   -0.0754    1.3597 C.ar    1  LIG1       -0.0398
      5 C          -1.1116    0.2759   -3.1978 C.ar    1  LIG1       -0.0301
      6 C          -3.2774    1.3275   -2.9971 C.ar    1  LIG1       -0.0301
      7 C          -1.6975   -0.9717   -2.9838 C.ar    1  LIG1       -0.0399
      8 C          -3.8634    0.0798   -2.7832 C.ar    1  LIG1       -0.0399
      9 C          -5.7165   -2.3088    0.3350 C.ar    1  LIG1       -0.0647
     10 C          -9.9646   -2.1490    2.2711 C.ar    1  LIG1       -0.0293
     11 C         -10.3984   -5.1261    0.2725 C.ar    1  LIG1       -0.0372
     12 C         -10.7472   -3.2422    1.8045 C.ar    1  LIG1       -0.0023
     13 C          -6.3296   -1.4286    1.2422 C.ar    1  LIG1        0.0253
     14 C         -11.7079   -5.5424    0.5288 C.ar    1  LIG1       -0.0492
     15 C          -4.3930   -2.0586   -0.0492 C.ar    1  LIG1       -0.1253
     16 C          -5.6108   -0.3428    1.7294 C.ar    1  LIG1        0.0569
     17 C          -9.9464   -3.9734    0.9246 C.ar    1  LIG1        0.0380
     18 C          -1.9015    1.4255   -3.2044 C.ar    1  LIG1        0.0747
     19 C          -3.0733   -1.0698   -2.7765 C.ar    1  LIG1        0.0224
     20 C          -7.5923   -1.3194    1.8634 C.ar    1  LIG1        0.1115
     21 C          -8.7269   -2.2363    1.6766 C.ar    1  LIG1        0.0593
     22 C         -12.2323   -6.7673   -0.1450 C.3     1  LIG1       -0.0397
     23 C           0.0816    2.6708   -3.6193 C.3     1  LIG1        0.0422
     24 N          -7.6812   -0.2632    2.6748 N.ar    1  LIG1       -0.1816
     25 N          -3.7863   -2.8912   -0.9181 N.pl3   1  LIG1       -0.5954
     26 N          -8.7256   -3.3397    0.8661 N.ar    1  LIG1       -0.3126
     27 N          -6.4694    0.3081    2.5738 N.ar    1  LIG1       -0.2373
     28 O          -5.1659   -2.5053   -3.0658 O.2     1  LIG1       -0.5091
     29 O          -2.9644   -3.5722   -3.2692 O.2     1  LIG1       -0.5091
     30 O          -1.3300    2.6430   -3.4137 O.3     1  LIG1       -0.3493
     31 S          -3.8308   -2.6825   -2.4989 S.O2    1  LIG1       -0.2964
     32 H         -12.7151   -3.1371    2.7256 H       1  LIG1        0.0630
     33 H         -13.5464   -5.1681    1.5919 H       1  LIG1        0.0625
     34 H          -2.6652   -0.7719    0.1531 H       1  LIG1        0.0611
     35 H          -3.7502    0.7787    1.7524 H       1  LIG1        0.0643
     36 H          -0.0393    0.3460   -3.3594 H       1  LIG1        0.0651
     37 H          -3.8980    2.2193   -3.0012 H       1  LIG1        0.0651
     38 H          -1.0727   -1.8607   -2.9805 H       1  LIG1        0.0642
     39 H          -4.9361    0.0147   -2.6224 H       1  LIG1        0.0642
     40 H          -6.2640   -3.1640   -0.0538 H       1  LIG1        0.0618
     41 H         -10.2805   -1.3838    2.9682 H       1  LIG1        0.0650
     42 H          -9.7528   -5.6742   -0.4064 H       1  LIG1        0.0645
     43 H         -12.7019   -6.5044   -1.1000 H       1  LIG1        0.0280
     44 H         -11.4287   -7.4889   -0.3378 H       1  LIG1        0.0280
     45 H         -12.9754   -7.2771    0.4811 H       1  LIG1        0.0280
     46 H           0.4078    3.7022   -3.7740 H       1  LIG1        0.0535
     47 H           0.3357    2.0625   -4.4911 H       1  LIG1        0.0535
     48 H           0.5776    2.2628   -2.7356 H       1  LIG1        0.0535
     49 H          -7.9436   -3.6480    0.3046 H       1  LIG1        0.1528
     50 H          -6.2908    1.1480    3.1101 H       1  LIG1        0.1755
@<TRIPOS>BOND
     1     1     2   ar
     2     1    12   ar
     3     2    14   ar
     4     3     4   ar
     5     3    15   ar
     6     4    16   ar
     7     5     7   ar
     8     5    18   ar
     9     6     8   ar
    10     6    18   ar
    11     7    19   ar
    12     8    19   ar
    13     9    13   ar
    14     9    15   ar
    15    10    12   ar
    16    10    21   ar
    17    11    14   ar
    18    11    17   ar
    19    12    17   ar
    20    13    16   ar
    21    13    20   ar
    22    14    22    1
    23    15    25    1
    24    16    27   ar
    25    17    26   ar
    26    18    30    1
    27    19    31    1
    28    20    21    1
    29    20    24   ar
    30    21    26   ar
    31    23    30    1
    32    24    27   ar
    33    25    31    1
    34    28    31    2
    35    29    31    2
    36     1    32    1
    37     2    33    1
    38     3    34    1
    39     4    35    1
    40     5    36    1
    41     6    37    1
    42     7    38    1
    43     8    39    1
    44     9    40    1
    45    10    41    1
    46    11    42    1
    47    22    43    1
    48    22    44    1
    49    22    45    1
    50    23    46    1
    51    23    47    1
    52    23    48    1
    53    26    49    1
    54    27    50    1
