@<TRIPOS>MOLECULE
ChEBML728466
 51 56 0 0 0
SMALL
USER_CHARGES

@<TRIPOS>ATOM
      1 C          -2.2704   -0.7101   -3.2347 C.ar    1  LIG1       -0.0510
      2 C         -10.5010   -5.0235    0.2957 C.ar    1  LIG1       -0.0372
      3 C          -2.0705    0.1134   -4.3451 C.ar    1  LIG1       -0.0285
      4 C         -11.8106   -5.3999    0.6070 C.ar    1  LIG1       -0.0244
      5 C         -12.0278   -3.5585    2.1741 C.ar    1  LIG1       -0.0149
      6 C          -2.4368    1.2296   -1.7725 C.ar    1  LIG1       -0.0205
      7 C          -9.0622   -0.2905    3.3941 C.ar    1  LIG1        0.1180
      8 C         -10.7092   -3.1594    1.8770 C.ar    1  LIG1        0.0265
      9 C          -2.4525   -0.1553   -1.9557 C.ar    1  LIG1       -0.0015
     10 C          -9.8647   -2.1045    2.3231 C.ar    1  LIG1        0.0989
     11 C          -9.9767   -3.8999    0.9454 C.ar    1  LIG1        0.0402
     12 C          -8.6478   -2.2229    1.6612 C.ar    1  LIG1        0.0981
     13 C          -2.0593    1.4774   -4.1372 C.ar    1  LIG1        0.1084
     14 C          -2.2376    2.0205   -2.8853 C.ar    1  LIG1        0.1089
     15 C         -12.5640   -4.6802    1.5316 C.ar    1  LIG1        0.1236
     16 C          -7.6289   -1.3189    1.9063 C.ar    1  LIG1        0.1460
     17 C          -5.2614   -0.9247    2.0239 C.3     1  LIG1        0.0524
     18 C          -6.4402   -1.0605   -0.1641 C.3     1  LIG1        0.0524
     19 C          -3.9553   -1.3089    1.3422 C.3     1  LIG1       -0.0177
     20 C          -5.1297   -1.4395   -0.8421 C.3     1  LIG1       -0.0177
     21 C          -1.9649    3.6327   -4.3025 C.3     1  LIG1        0.1586
     22 C          -2.6657   -1.0600   -0.7779 C.3     1  LIG1       -0.0081
     23 N         -10.1113   -1.1195    3.2230 N.ar    1  LIG1       -0.2341
     24 N          -7.8502   -0.3293    2.7980 N.ar    1  LIG1       -0.2194
     25 N          -8.7355   -3.3116    0.8346 N.ar    1  LIG1       -0.3097
     26 N          -6.3925   -1.4229    1.2468 N.pl3   1  LIG1       -0.3037
     27 N          -3.9793   -0.8263   -0.0859 N.4     1  LIG1        0.2516
     28 O          -1.8802    2.4293   -5.0930 O.3     1  LIG1       -0.3159
     29 O          -2.1923    3.3805   -2.9006 O.3     1  LIG1       -0.3159
     30 F         -13.8173   -5.0649    1.8099 F       1  LIG1       -0.2069
     31 H          -2.2841   -1.7892   -3.3682 H       1  LIG1        0.0628
     32 H          -9.9154   -5.5847   -0.4249 H       1  LIG1        0.0644
     33 H          -1.9299   -0.3105   -5.3330 H       1  LIG1        0.0651
     34 H         -12.2467   -6.2679    0.1194 H       1  LIG1        0.0654
     35 H         -12.6279   -3.0070    2.8919 H       1  LIG1        0.0661
     36 H          -2.5762    1.6703   -0.7911 H       1  LIG1        0.0656
     37 H          -9.2098    0.5152    4.1049 H       1  LIG1        0.1063
     38 H          -5.2678   -1.3511    3.0348 H       1  LIG1        0.0524
     39 H          -5.3259    0.1666    2.1250 H       1  LIG1        0.0524
     40 H          -6.6184    0.0175   -0.2706 H       1  LIG1        0.0524
     41 H          -7.2607   -1.5825   -0.6718 H       1  LIG1        0.0524
     42 H          -3.1039   -0.8335    1.8402 H       1  LIG1        0.0831
     43 H          -3.8102   -2.3953    1.3223 H       1  LIG1        0.0831
     44 H          -4.9766   -2.5249   -0.8533 H       1  LIG1        0.0831
     45 H          -5.0981   -1.0538   -1.8663 H       1  LIG1        0.0831
     46 H          -1.0279    4.1908   -4.4112 H       1  LIG1        0.0892
     47 H          -2.7873    4.2475   -4.6862 H       1  LIG1        0.0892
     48 H          -2.6522   -2.1128   -1.0798 H       1  LIG1        0.0869
     49 H          -1.8835   -0.9189   -0.0242 H       1  LIG1        0.0869
     50 H          -7.9958   -3.6397    0.2288 H       1  LIG1        0.1530
     51 H          -4.1253    0.1925   -0.0686 H       1  LIG1        0.2008
@<TRIPOS>BOND
     1     1     3   ar
     2     1     9   ar
     3     2     4   ar
     4     2    11   ar
     5     3    13   ar
     6     4    15   ar
     7     5     8   ar
     8     5    15   ar
     9     6     9   ar
    10     6    14   ar
    11     7    23   ar
    12     7    24   ar
    13     8    10   ar
    14     8    11   ar
    15     9    22    1
    16    10    12   ar
    17    10    23   ar
    18    11    25   ar
    19    12    16   ar
    20    12    25   ar
    21    13    14   ar
    22    13    28    1
    23    14    29    1
    24    15    30    1
    25    16    24   ar
    26    16    26    1
    27    17    19    1
    28    17    26    1
    29    18    20    1
    30    18    26    1
    31    19    27    1
    32    20    27    1
    33    21    28    1
    34    21    29    1
    35    22    27    1
    36     1    31    1
    37     2    32    1
    38     3    33    1
    39     4    34    1
    40     5    35    1
    41     6    36    1
    42     7    37    1
    43    17    38    1
    44    17    39    1
    45    18    40    1
    46    18    41    1
    47    19    42    1
    48    19    43    1
    49    20    44    1
    50    20    45    1
    51    21    46    1
    52    21    47    1
    53    22    48    1
    54    22    49    1
    55    25    50    1
    56    27    51    1
