@<TRIPOS>MOLECULE
ChEBML274020
 27 28 0 0 0
SMALL
USER_CHARGES

@<TRIPOS>ATOM
      1 C         -10.2353   -5.3772    0.6301 C.ar    1  LIG1       -0.0375
      2 C         -11.5382   -5.8176    0.8802 C.ar    1  LIG1       -0.0292
      3 C         -12.0879   -3.7362    2.0039 C.ar    1  LIG1       -0.0219
      4 C         -10.0849   -2.0662    2.0654 C.ar    1  LIG1       -0.0157
      5 C         -10.7799   -3.2707    1.7634 C.ar    1  LIG1        0.0015
      6 C          -9.8856   -4.1003    1.0834 C.ar    1  LIG1        0.0388
      7 C         -12.4518   -5.0115    1.5563 C.ar    1  LIG1        0.0860
      8 C          -8.8059   -2.1858    1.5726 C.ar    1  LIG1        0.1126
      9 C         -14.4328   -5.7751    0.6182 C.2     1  LIG1        0.2628
     10 C         -15.6709   -4.9318    0.5416 C.3     1  LIG1        0.0225
     11 N          -8.6953   -3.4159    0.9818 N.ar    1  LIG1       -0.3018
     12 N          -7.6953   -0.2274    0.1456 N.3     1  LIG1       -0.3024
     13 O         -14.1107   -6.6027   -0.2239 O.2     1  LIG1       -0.2664
     14 O          -7.6168   -0.1763    2.7218 O.2     1  LIG1       -0.4753
     15 O          -6.2225   -1.8674    1.4792 O.2     1  LIG1       -0.4753
     16 O         -13.7153   -5.4682    1.7851 O.3     1  LIG1       -0.2784
     17 S          -7.4312   -1.0760    1.6004 S.O2    1  LIG1       -0.1570
     18 H          -9.5243   -6.0061    0.1048 H       1  LIG1        0.0643
     19 H         -11.8363   -6.8062    0.5384 H       1  LIG1        0.0651
     20 H         -12.8051   -3.1132    2.5314 H       1  LIG1        0.0657
     21 H         -10.4791   -1.2051    2.5879 H       1  LIG1        0.0663
     22 H         -16.5009   -5.4460    1.0326 H       1  LIG1        0.0336
     23 H         -15.9339   -4.7696   -0.5078 H       1  LIG1        0.0336
     24 H         -15.4875   -3.9611    1.0091 H       1  LIG1        0.0336
     25 H          -7.8618   -3.7730    0.5351 H       1  LIG1        0.1540
     26 H          -8.0058    0.7497    0.2114 H       1  LIG1        0.1602
     27 H          -7.0543   -0.4076   -0.6366 H       1  LIG1        0.1602
@<TRIPOS>BOND
     1     1     2   ar
     2     1     6   ar
     3     2     7   ar
     4     3     5   ar
     5     3     7   ar
     6     4     5   ar
     7     4     8   ar
     8     5     6   ar
     9     6    11   ar
    10     7    16    1
    11     8    11   ar
    12     8    17    1
    13     9    10    1
    14     9    13    2
    15     9    16    1
    16    12    17    1
    17    14    17    2
    18    15    17    2
    19     1    18    1
    20     2    19    1
    21     3    20    1
    22     4    21    1
    23    10    22    1
    24    10    23    1
    25    10    24    1
    26    11    25    1
    27    12    26    1
    28    12    27    1
