@<TRIPOS>MOLECULE
ChEBML300212
 43 45 0 0 0
SMALL
USER_CHARGES

@<TRIPOS>ATOM
      1 C         -10.2116   -5.0567    0.2734 C.ar    1  LIG1       -0.0387
      2 C         -11.5146   -5.5129    0.4929 C.ar    1  LIG1       -0.0416
      3 C         -11.9669   -3.6690    2.0070 C.ar    1  LIG1       -0.0343
      4 C          -9.9211   -2.0760    2.2924 C.ar    1  LIG1       -0.0262
      5 C         -10.6577   -3.1901    1.8014 C.ar    1  LIG1       -0.0007
      6 C          -9.8120   -3.8937    0.9411 C.ar    1  LIG1        0.0379
      7 C         -12.3803   -4.8312    1.3458 C.ar    1  LIG1        0.0413
      8 C          -8.6658   -2.1240    1.7314 C.ar    1  LIG1        0.0945
      9 C          -7.5307   -1.1864    1.9301 C.2     1  LIG1        0.2576
     10 C          -4.0819   -1.2577    0.4553 C.2     1  LIG1        0.2316
     11 C          -2.0406   -2.2226   -1.1370 C.3     1  LIG1       -0.0176
     12 C          -2.9087   -1.7329   -2.2933 C.3     1  LIG1        0.0183
     13 C          -1.2573    0.0898   -1.2525 C.3     1  LIG1        0.0351
     14 C          -1.7099   -0.9977   -0.2770 C.3     1  LIG1        0.0417
     15 C          -2.6468    0.6087    1.3405 C.3     1  LIG1        0.0031
     16 C          -5.1750   -0.6807    1.3376 C.3     1  LIG1        0.0887
     17 N          -8.6095   -3.2236    0.9177 N.ar    1  LIG1       -0.3101
     18 N          -6.3635   -1.4777    1.2310 N.am    1  LIG1       -0.3013
     19 N          -2.8498   -0.5747    0.5007 N.am    1  LIG1       -0.2990
     20 O          -7.6646   -0.2359    2.6965 O.2     1  LIG1       -0.2704
     21 O          -4.2918   -2.2565   -0.2383 O.2     1  LIG1       -0.2756
     22 O          -3.3504    0.8392   -2.6715 O.2     1  LIG1       -0.4989
     23 O          -1.3991   -0.2552   -3.8664 O.2     1  LIG1       -0.4989
     24 S          -2.2670   -0.1206   -2.7150 S.O2    1  LIG1       -0.2574
     25 CL        -13.9798   -5.4237    1.5896 Cl      1  LIG1       -0.0843
     26 H          -9.5383   -5.5888   -0.3903 H       1  LIG1        0.0643
     27 H         -11.8424   -6.4160   -0.0175 H       1  LIG1        0.0639
     28 H         -12.6409   -3.1365    2.6729 H       1  LIG1        0.0645
     29 H         -10.2756   -1.3218    2.9823 H       1  LIG1        0.0651
     30 H          -2.5499   -3.0087   -0.5700 H       1  LIG1        0.0301
     31 H          -1.1102   -2.6455   -1.5359 H       1  LIG1        0.0301
     32 H          -2.8541   -2.3914   -3.1627 H       1  LIG1        0.0462
     33 H          -3.9506   -1.6111   -1.9835 H       1  LIG1        0.0462
     34 H          -1.3818    1.1047   -0.8672 H       1  LIG1        0.0480
     35 H          -0.2178   -0.0721   -1.5544 H       1  LIG1        0.0480
     36 H          -0.9158   -1.2238    0.4417 H       1  LIG1        0.0522
     37 H          -2.2900    0.3107    2.3298 H       1  LIG1        0.0433
     38 H          -3.5862    1.1562    1.4555 H       1  LIG1        0.0433
     39 H          -1.9075    1.2730    0.8851 H       1  LIG1        0.0433
     40 H          -4.8627   -0.6912    2.3850 H       1  LIG1        0.0567
     41 H          -5.4283    0.3330    1.0166 H       1  LIG1        0.0567
     42 H          -7.8036   -3.5061    0.3767 H       1  LIG1        0.1529
     43 H          -6.3155   -2.3229    0.6630 H       1  LIG1        0.1503
@<TRIPOS>BOND
     1     1     2   ar
     2     1     6   ar
     3     2     7   ar
     4     3     5   ar
     5     3     7   ar
     6     4     5   ar
     7     4     8   ar
     8     5     6   ar
     9     6    17   ar
    10     7    25    1
    11     8     9    1
    12     8    17   ar
    13     9    18   am
    14     9    20    2
    15    10    16    1
    16    10    19   am
    17    10    21    2
    18    11    12    1
    19    11    14    1
    20    12    24    1
    21    13    14    1
    22    13    24    1
    23    14    19    1
    24    15    19    1
    25    16    18    1
    26    22    24    2
    27    23    24    2
    28     1    26    1
    29     2    27    1
    30     3    28    1
    31     4    29    1
    32    11    30    1
    33    11    31    1
    34    12    32    1
    35    12    33    1
    36    13    34    1
    37    13    35    1
    38    14    36    1
    39    15    37    1
    40    15    38    1
    41    15    39    1
    42    16    40    1
    43    16    41    1
    44    17    42    1
    45    18    43    1
