@<TRIPOS>MOLECULE
ChEBML512980
 41 43 0 0 0
SMALL
USER_CHARGES

@<TRIPOS>ATOM
      1 C          -1.6475    0.6517   -2.9072 C.ar    1  LIG1       -0.0622
      2 C         -12.7991   -4.3632    1.7809 C.ar    1  LIG1       -0.0615
      3 C          -2.4475    1.6781   -2.4050 C.ar    1  LIG1       -0.0620
      4 C          -2.1487   -0.6476   -2.9873 C.ar    1  LIG1       -0.0620
      5 C         -12.0772   -5.4494    1.2901 C.ar    1  LIG1       -0.0603
      6 C         -12.1712   -3.1355    2.0211 C.ar    1  LIG1       -0.0530
      7 C          -3.7486    1.4052   -1.9829 C.ar    1  LIG1       -0.0588
      8 C          -3.4498   -0.9205   -2.5652 C.ar    1  LIG1       -0.0588
      9 C         -10.7089   -5.3446    1.0241 C.ar    1  LIG1       -0.0402
     10 C          -9.8560   -1.9418    1.8835 C.ar    1  LIG1       -0.0305
     11 C         -10.7925   -3.0060    1.7606 C.ar    1  LIG1       -0.0025
     12 C          -4.2498    0.1059   -2.0631 C.ar    1  LIG1       -0.0428
     13 C         -10.0946   -4.1113    1.2691 C.ar    1  LIG1        0.0376
     14 C          -8.6305   -2.4128    1.4722 C.ar    1  LIG1        0.0524
     15 C          -7.9040    0.5107    0.5087 C.3     1  LIG1       -0.0451
     16 C          -5.6502   -0.1886   -1.6086 C.3     1  LIG1        0.0116
     17 C          -7.3186   -1.7438    1.3940 C.3     1  LIG1        0.0048
     18 C          -5.7529   -0.5707   -0.1356 C.3     1  LIG1       -0.0301
     19 N          -8.7845   -3.7222    1.1033 N.ar    1  LIG1       -0.3135
     20 N          -7.1908   -0.7885    0.2502 N.4     1  LIG1        0.2483
     21 H          -0.6348    0.8646   -3.2370 H       1  LIG1        0.0622
     22 H         -13.8619   -4.4695    1.9806 H       1  LIG1        0.0623
     23 H          -2.0578    2.6900   -2.3436 H       1  LIG1        0.0623
     24 H          -1.5264   -1.4467   -3.3792 H       1  LIG1        0.0623
     25 H         -12.5853   -6.3938    1.1108 H       1  LIG1        0.0623
     26 H         -12.7457   -2.2966    2.4034 H       1  LIG1        0.0629
     27 H          -4.3647    2.2112   -1.5929 H       1  LIG1        0.0625
     28 H          -3.8318   -1.9357   -2.6312 H       1  LIG1        0.0625
     29 H         -10.1478   -6.1909    0.6426 H       1  LIG1        0.0642
     30 H         -10.0595   -0.9391    2.2351 H       1  LIG1        0.0648
     31 H          -7.4293    0.9869    1.3686 H       1  LIG1        0.0777
     32 H          -7.8069    1.1289   -0.3857 H       1  LIG1        0.0777
     33 H          -8.9511    0.2815    0.7157 H       1  LIG1        0.0777
     34 H          -6.2670    0.7041   -1.7781 H       1  LIG1        0.0370
     35 H          -6.0948   -0.9768   -2.2299 H       1  LIG1        0.0370
     36 H          -7.0924   -1.1522    2.2993 H       1  LIG1        0.0882
     37 H          -6.4867   -2.4609    1.2741 H       1  LIG1        0.0882
     38 H          -5.3828    0.2378    0.5018 H       1  LIG1        0.0818
     39 H          -5.2161   -1.4941    0.1020 H       1  LIG1        0.0818
     40 H          -8.0457   -4.3201    0.7590 H       1  LIG1        0.1527
     41 H          -7.6533   -1.2209   -0.5632 H       1  LIG1        0.2004
@<TRIPOS>BOND
     1     1     3   ar
     2     1     4   ar
     3     2     5   ar
     4     2     6   ar
     5     3     7   ar
     6     4     8   ar
     7     5     9   ar
     8     6    11   ar
     9     7    12   ar
    10     8    12   ar
    11     9    13   ar
    12    10    11   ar
    13    10    14   ar
    14    11    13   ar
    15    12    16    1
    16    13    19   ar
    17    14    17    1
    18    14    19   ar
    19    15    20    1
    20    16    18    1
    21    17    20    1
    22    18    20    1
    23     1    21    1
    24     2    22    1
    25     3    23    1
    26     4    24    1
    27     5    25    1
    28     6    26    1
    29     7    27    1
    30     8    28    1
    31     9    29    1
    32    10    30    1
    33    15    31    1
    34    15    32    1
    35    15    33    1
    36    16    34    1
    37    16    35    1
    38    17    36    1
    39    17    37    1
    40    18    38    1
    41    18    39    1
    42    19    40    1
    43    20    41    1
