@<TRIPOS>MOLECULE
ChEBML1144627
 44 47 0 0 0
SMALL
USER_CHARGES

@<TRIPOS>ATOM
      1 C          -1.4786    0.4670   -3.2242 C.ar    1  LIG1       -0.0622
      2 C          -2.2512    1.6279   -3.1926 C.ar    1  LIG1       -0.0619
      3 C          -1.9156   -0.6799   -2.5613 C.ar    1  LIG1       -0.0619
      4 C          -8.4028   -2.6926    0.5487 C.ar    1  LIG1       -0.0506
      5 C          -3.4606    1.6421   -2.4979 C.ar    1  LIG1       -0.0574
      6 C          -3.1250   -0.6657   -1.8666 C.ar    1  LIG1       -0.0574
      7 C          -9.3918   -3.6089    0.1793 C.ar    1  LIG1       -0.0345
      8 C          -7.3783   -0.5151    3.3157 C.ar    1  LIG1       -0.0172
      9 C          -9.7696   -1.9012    2.3884 C.ar    1  LIG1       -0.0365
     10 C          -6.3586    0.3883    3.5360 C.ar    1  LIG1        0.0328
     11 C          -8.5914   -1.8508    1.6392 C.ar    1  LIG1        0.0016
     12 C          -3.8975    0.4952   -1.8348 C.ar    1  LIG1       -0.0308
     13 C         -10.5920   -3.6805    0.9193 C.ar    1  LIG1        0.0799
     14 C         -10.7587   -2.8240    2.0117 C.ar    1  LIG1        0.0415
     15 C          -7.5551   -0.9079    2.0047 C.ar    1  LIG1        0.0756
     16 C          -5.8385    0.4172    1.3233 C.ar    1  LIG1        0.2144
     17 C         -12.6024   -4.3272    1.5572 C.ar    1  LIG1        0.1644
     18 C         -14.3433   -5.9952    0.8421 C.2     1  LIG1        0.2144
     19 C         -15.7157   -6.4338    1.2875 C.3     1  LIG1        0.0131
     20 C          -5.1992    0.5099   -1.0867 C.3     1  LIG1        0.0365
     21 N          -5.5662    0.8770    2.5595 N.ar    1  LIG1       -0.2236
     22 N         -11.6561   -4.5354    0.6718 N.ar    1  LIG1       -0.2252
     23 N          -6.8007   -0.4600    0.9797 N.ar    1  LIG1       -0.2150
     24 N          -5.0286    0.9072    0.2757 N.pl3   1  LIG1       -0.3094
     25 N         -13.8108   -4.9643    1.6559 N.am    1  LIG1       -0.2645
     26 O         -13.8004   -6.5174   -0.1261 O.2     1  LIG1       -0.2775
     27 S         -12.2984   -3.1190    2.7294 S.2     1  LIG1       -0.0519
     28 H          -0.5375    0.4556   -3.7664 H       1  LIG1        0.0622
     29 H          -1.9116    2.5206   -3.7097 H       1  LIG1        0.0623
     30 H          -1.3149   -1.5843   -2.5867 H       1  LIG1        0.0623
     31 H          -7.4847   -2.6513   -0.0335 H       1  LIG1        0.0630
     32 H          -4.0559    2.5512   -2.4785 H       1  LIG1        0.0626
     33 H          -3.4574   -1.5639   -1.3529 H       1  LIG1        0.0626
     34 H          -9.2339   -4.2618   -0.6745 H       1  LIG1        0.0646
     35 H          -7.9917   -0.8828    4.1290 H       1  LIG1        0.0662
     36 H          -9.9233   -1.2456    3.2417 H       1  LIG1        0.0642
     37 H          -6.1440    0.7551    4.5341 H       1  LIG1        0.0842
     38 H         -16.4781   -5.8354    0.7808 H       1  LIG1        0.0328
     39 H         -15.8163   -6.2949    2.3677 H       1  LIG1        0.0328
     40 H         -15.8642   -7.4918    1.0521 H       1  LIG1        0.0328
     41 H          -5.9056    1.2041   -1.5546 H       1  LIG1        0.0518
     42 H          -5.6658   -0.4808   -1.0906 H       1  LIG1        0.0518
     43 H          -4.3103    1.5592    0.5256 H       1  LIG1        0.1499
     44 H         -14.4465   -4.6743    2.4237 H       1  LIG1        0.1577
@<TRIPOS>BOND
     1     1     2   ar
     2     1     3   ar
     3     2     5   ar
     4     3     6   ar
     5     4     7   ar
     6     4    11   ar
     7     5    12   ar
     8     6    12   ar
     9     7    13   ar
    10     8    10   ar
    11     8    15   ar
    12     9    11   ar
    13     9    14   ar
    14    10    21   ar
    15    11    15    1
    16    12    20    1
    17    13    14   ar
    18    13    22   ar
    19    14    27   ar
    20    15    23   ar
    21    16    21   ar
    22    16    23   ar
    23    16    24    1
    24    17    22   ar
    25    17    25    1
    26    17    27   ar
    27    18    19    1
    28    18    25   am
    29    18    26    2
    30    20    24    1
    31     1    28    1
    32     2    29    1
    33     3    30    1
    34     4    31    1
    35     5    32    1
    36     6    33    1
    37     7    34    1
    38     8    35    1
    39     9    36    1
    40    10    37    1
    41    19    38    1
    42    19    39    1
    43    19    40    1
    44    20    41    1
    45    20    42    1
    46    24    43    1
    47    25    44    1
