@<TRIPOS>MOLECULE
ChEBML790173
 47 51 0 0 0
SMALL
USER_CHARGES

@<TRIPOS>ATOM
      1 C         -14.1447   -4.5335    1.9988 C.ar    1  LIG1       -0.0615
      2 C         -14.0365   -5.5770    1.0800 C.ar    1  LIG1       -0.0603
      3 C          -1.7613    0.6221   -3.9856 C.ar    1  LIG1       -0.0602
      4 C          -2.3097   -0.5553   -3.4940 C.ar    1  LIG1       -0.0602
      5 C         -13.0622   -3.6840    2.2546 C.ar    1  LIG1       -0.0524
      6 C         -12.8460   -5.8094    0.3844 C.ar    1  LIG1       -0.0399
      7 C          -1.9503    1.8086   -3.2867 C.ar    1  LIG1       -0.0388
      8 C          -3.0589   -0.5450   -2.3120 C.ar    1  LIG1       -0.0386
      9 C         -10.0101   -2.2240    2.1948 C.ar    1  LIG1       -0.0316
     10 C         -11.8530   -3.8961    1.5681 C.ar    1  LIG1        0.0057
     11 C         -10.5911   -3.3045    1.5333 C.ar    1  LIG1        0.0134
     12 C         -11.7659   -4.9577    0.6427 C.ar    1  LIG1        0.0411
     13 C          -2.6930    1.8161   -2.0971 C.ar    1  LIG1        0.0544
     14 C          -3.2809    0.6448   -1.5982 C.ar    1  LIG1        0.0575
     15 C          -8.6966   -2.0923    1.7538 C.ar    1  LIG1        0.0867
     16 C          -9.7917   -3.9380    0.6668 C.ar    1  LIG1        0.0799
     17 C          -3.4832    3.1780   -0.2365 C.2     1  LIG1        0.2340
     18 C          -7.6725   -1.0964    2.1586 C.2     1  LIG1        0.3001
     19 C          -4.9120   -0.3614   -0.0202 C.2     1  LIG1        0.2458
     20 C          -3.9320    1.9018    0.4332 C.3     1  LIG1        0.0967
     21 C          -9.9810   -5.8859   -0.8850 C.3     1  LIG1        0.0058
     22 C          -5.7023   -0.1594    1.2551 C.3     1  LIG1        0.1338
     23 N         -10.4809   -4.9566    0.1030 N.ar    1  LIG1       -0.2973
     24 N          -2.8470    3.0409   -1.4395 N.am    1  LIG1       -0.2824
     25 N          -4.0606    0.6981   -0.3926 N.am    1  LIG1       -0.2586
     26 O          -3.5956    4.2635    0.3356 O.2     1  LIG1       -0.2754
     27 O          -7.8805   -0.2183    2.9815 O.2     1  LIG1       -0.2600
     28 O          -5.0837   -1.4080   -0.6489 O.2     1  LIG1       -0.2743
     29 O          -6.4956   -1.3010    1.4950 O.3     1  LIG1       -0.3019
     30 S          -8.2624   -3.2963    0.5631 S.2     1  LIG1       -0.0673
     31 H         -15.0829   -4.3767    2.5249 H       1  LIG1        0.0623
     32 H         -14.8929   -6.2221    0.9003 H       1  LIG1        0.0623
     33 H          -1.1816    0.6143   -4.9035 H       1  LIG1        0.0623
     34 H          -2.1515   -1.4900   -4.0247 H       1  LIG1        0.0623
     35 H         -13.1632   -2.8760    2.9734 H       1  LIG1        0.0630
     36 H         -12.7714   -6.6237   -0.3286 H       1  LIG1        0.0643
     37 H          -1.5103    2.7252   -3.6724 H       1  LIG1        0.0643
     38 H          -3.4234   -1.5058   -1.9655 H       1  LIG1        0.0643
     39 H         -10.4752   -1.5800    2.9297 H       1  LIG1        0.0644
     40 H          -3.2118    1.6733    1.2278 H       1  LIG1        0.0574
     41 H          -4.8991    2.1206    0.8980 H       1  LIG1        0.0574
     42 H         -10.1837   -5.4675   -1.8744 H       1  LIG1        0.0436
     43 H          -8.9060   -6.0259   -0.7420 H       1  LIG1        0.0436
     44 H         -10.4868   -6.8480   -0.7646 H       1  LIG1        0.0436
     45 H          -6.3350    0.7149    1.1515 H       1  LIG1        0.0675
     46 H          -5.0084   -0.0215    2.0765 H       1  LIG1        0.0675
     47 H          -2.4604    3.8722   -1.8778 H       1  LIG1        0.1557
@<TRIPOS>BOND
     1     1     2   ar
     2     1     5   ar
     3     2     6   ar
     4     3     4   ar
     5     3     7   ar
     6     4     8   ar
     7     5    10   ar
     8     6    12   ar
     9     7    13   ar
    10     8    14   ar
    11     9    11   ar
    12     9    15   ar
    13    10    11   ar
    14    10    12   ar
    15    11    16   ar
    16    12    23   ar
    17    13    14   ar
    18    13    24    1
    19    14    25    1
    20    15    18    1
    21    15    30   ar
    22    16    23   ar
    23    16    30   ar
    24    17    20    1
    25    17    24   am
    26    17    26    2
    27    18    27    2
    28    18    29    1
    29    19    22    1
    30    19    25   am
    31    19    28    2
    32    20    25    1
    33    21    23    1
    34    22    29    1
    35     1    31    1
    36     2    32    1
    37     3    33    1
    38     4    34    1
    39     5    35    1
    40     6    36    1
    41     7    37    1
    42     8    38    1
    43     9    39    1
    44    20    40    1
    45    20    41    1
    46    21    42    1
    47    21    43    1
    48    21    44    1
    49    22    45    1
    50    22    46    1
    51    24    47    1
