@<TRIPOS>MOLECULE
ChEBML301572
 56 58 0 0 0
SMALL
USER_CHARGES

@<TRIPOS>ATOM
      1 C          -1.6203   -1.9795   -1.7362 C.1     1  LIG1        0.1019
      2 C          -2.4450    0.9456   -3.8774 C.ar    1  LIG1       -0.0607
      3 C         -12.9272   -4.3368    1.2154 C.ar    1  LIG1       -0.0615
      4 C         -12.1626   -5.3327    0.6110 C.ar    1  LIG1       -0.0603
      5 C          -3.2970    1.6673   -3.0414 C.ar    1  LIG1       -0.0596
      6 C          -1.8943   -0.2590   -3.4399 C.ar    1  LIG1       -0.0417
      7 C         -12.3206   -3.1982    1.7580 C.ar    1  LIG1       -0.0530
      8 C         -10.7714   -5.2237    0.5294 C.ar    1  LIG1       -0.0402
      9 C          -3.5982    1.1846   -1.7679 C.ar    1  LIG1       -0.0304
     10 C          -9.9939   -2.0756    2.1201 C.ar    1  LIG1       -0.0356
     11 C          -2.1955   -0.7417   -2.1663 C.ar    1  LIG1        0.0822
     12 C         -10.9194   -3.0663    1.6876 C.ar    1  LIG1       -0.0027
     13 C         -10.1787   -4.0801    1.0762 C.ar    1  LIG1        0.0374
     14 C          -3.0475   -0.0200   -1.3303 C.ar    1  LIG1        0.0928
     15 C          -8.7328   -2.4994    1.7696 C.ar    1  LIG1        0.0135
     16 C          -6.3082   -1.6723   -0.3479 C.3     1  LIG1       -0.0196
     17 C          -7.9728    0.0722    0.3867 C.3     1  LIG1       -0.0196
     18 C          -6.2978    1.0778    2.2081 C.3     1  LIG1       -0.0448
     19 C          -7.3823   -1.8553    1.9780 C.3     1  LIG1        0.0299
     20 C          -4.8333   -0.9360    2.2359 C.3     1  LIG1       -0.0050
     21 C          -3.0071    0.3760    1.0143 C.3     1  LIG1        0.0845
     22 C          -3.4555   -0.2870    2.3132 C.3     1  LIG1        0.1165
     23 C          -6.8999   -0.9187    0.8467 C.3     1  LIG1       -0.0131
     24 N          -1.1540   -2.9833   -1.3874 N.1     1  LIG1       -0.1923
     25 N          -8.8545   -3.7092    1.1402 N.ar    1  LIG1       -0.3176
     26 N          -5.7792   -0.0954    1.4308 N.4     1  LIG1        0.2500
     27 O          -2.5037   -1.2859    2.6833 O.3     1  LIG1       -0.3852
     28 O          -3.3600   -0.4705   -0.0759 O.3     1  LIG1       -0.3418
     29 H          -2.2106    1.3217   -4.8690 H       1  LIG1        0.0623
     30 H         -14.0073   -4.4446    1.2672 H       1  LIG1        0.0623
     31 H         -12.6550   -6.2090    0.1960 H       1  LIG1        0.0623
     32 H          -3.7258    2.6052   -3.3822 H       1  LIG1        0.0623
     33 H          -1.2319   -0.8093   -4.1040 H       1  LIG1        0.0637
     34 H         -12.9283   -2.4290    2.2259 H       1  LIG1        0.0629
     35 H         -10.1771   -5.9999    0.0592 H       1  LIG1        0.0642
     36 H          -4.2627    1.7521   -1.1220 H       1  LIG1        0.0651
     37 H         -10.2282   -1.1521    2.6323 H       1  LIG1        0.0646
     38 H          -5.5385   -2.3845   -0.0278 H       1  LIG1        0.0290
     39 H          -7.0788   -2.2373   -0.8844 H       1  LIG1        0.0290
     40 H          -5.8357   -0.9866   -1.0590 H       1  LIG1        0.0290
     41 H          -8.4025    0.6167    1.2358 H       1  LIG1        0.0290
     42 H          -7.5597    0.8198   -0.2982 H       1  LIG1        0.0290
     43 H          -8.7942   -0.4395   -0.1275 H       1  LIG1        0.0290
     44 H          -6.8651    0.6915    3.0568 H       1  LIG1        0.0777
     45 H          -5.4390    1.6624    2.5432 H       1  LIG1        0.0777
     46 H          -6.9359    1.6632    1.5435 H       1  LIG1        0.0777
     47 H          -7.4086   -1.3042    2.9290 H       1  LIG1        0.0390
     48 H          -6.6434   -2.6534    2.1383 H       1  LIG1        0.0390
     49 H          -4.7955   -1.9172    1.7540 H       1  LIG1        0.0843
     50 H          -5.2841   -1.0282    3.2287 H       1  LIG1        0.0843
     51 H          -1.9216    0.5127    0.9853 H       1  LIG1        0.0602
     52 H          -3.5062    1.3394    0.8714 H       1  LIG1        0.0602
     53 H          -3.4612    0.4517    3.1233 H       1  LIG1        0.0681
     54 H          -8.0858   -4.2544    0.7747 H       1  LIG1        0.1525
     55 H          -5.2480    0.2800    0.6359 H       1  LIG1        0.2007
     56 H          -2.7849   -1.6241    3.5466 H       1  LIG1        0.2108
@<TRIPOS>BOND
     1     1    11    1
     2     1    24    3
     3     2     5   ar
     4     2     6   ar
     5     3     4   ar
     6     3     7   ar
     7     4     8   ar
     8     5     9   ar
     9     6    11   ar
    10     7    12   ar
    11     8    13   ar
    12     9    14   ar
    13    10    12   ar
    14    10    15   ar
    15    11    14   ar
    16    12    13   ar
    17    13    25   ar
    18    14    28    1
    19    15    19    1
    20    15    25   ar
    21    16    23    1
    22    17    23    1
    23    18    26    1
    24    19    23    1
    25    20    22    1
    26    20    26    1
    27    21    22    1
    28    21    28    1
    29    22    27    1
    30    23    26    1
    31     2    29    1
    32     3    30    1
    33     4    31    1
    34     5    32    1
    35     6    33    1
    36     7    34    1
    37     8    35    1
    38     9    36    1
    39    10    37    1
    40    16    38    1
    41    16    39    1
    42    16    40    1
    43    17    41    1
    44    17    42    1
    45    17    43    1
    46    18    44    1
    47    18    45    1
    48    18    46    1
    49    19    47    1
    50    19    48    1
    51    20    49    1
    52    20    50    1
    53    21    51    1
    54    21    52    1
    55    22    53    1
    56    25    54    1
    57    26    55    1
    58    27    56    1
