@<TRIPOS>MOLECULE
ChEBML204805
 67 70 0 0 0
SMALL
USER_CHARGES

@<TRIPOS>ATOM
      1 C          -1.4454    1.2492   -4.3515 C.ar    1  LIG1       -0.0418
      2 C         -10.3390   -4.9833    0.2074 C.ar    1  LIG1       -0.0383
      3 C          -1.0663    1.3577   -3.0181 C.ar    1  LIG1       -0.0360
      4 C         -11.6998   -5.2890    0.3008 C.ar    1  LIG1       -0.0388
      5 C         -12.0818   -3.4000    1.7782 C.ar    1  LIG1       -0.0314
      6 C          -9.9058   -2.0463    2.2644 C.ar    1  LIG1       -0.0261
      7 C          -2.7961    1.1217   -4.6332 C.ar    1  LIG1        0.0292
      8 C         -10.7138   -3.0723    1.6992 C.ar    1  LIG1       -0.0003
      9 C          -9.8756   -3.8700    0.9172 C.ar    1  LIG1        0.0379
     10 C         -12.5596   -4.5109    1.0735 C.ar    1  LIG1        0.0347
     11 C          -2.0355    1.3357   -2.0214 C.ar    1  LIG1        0.0672
     12 C          -8.6168   -2.2375    1.8230 C.ar    1  LIG1        0.0947
     13 C          -3.3597    1.2046   -2.4076 C.ar    1  LIG1        0.1411
     14 C          -7.4494   -1.4606    2.1220 C.2     1  LIG1        0.2598
     15 C         -14.5907   -5.9083    0.5235 C.2     1  LIG1        0.3020
     16 C          -6.2587   -0.3124   -1.0651 C.3     1  LIG1       -0.0185
     17 C          -4.4624   -0.0521    0.6984 C.3     1  LIG1       -0.0185
     18 C          -6.7775   -1.5328   -0.3059 C.3     1  LIG1        0.0162
     19 C          -5.0403   -1.2679    1.4246 C.3     1  LIG1        0.0162
     20 C          -4.7673   -0.0648   -0.8053 C.3     1  LIG1        0.0268
     21 C           0.3797    0.2158   -0.2894 C.3     1  LIG1       -0.0470
     22 C          -0.2597    2.1892    1.1398 C.3     1  LIG1       -0.0470
     23 C         -16.8905   -6.8732    0.3535 C.3     1  LIG1        0.0011
     24 C          -4.9732    2.4211   -0.9664 C.3     1  LIG1        0.0018
     25 C          -0.2906    1.5816   -0.2550 C.3     1  LIG1        0.0142
     26 N          -3.7664    1.0966   -3.6923 N.ar    1  LIG1       -0.2394
     27 N          -8.6086   -3.3396    1.0109 N.ar    1  LIG1       -0.3101
     28 N          -6.4650   -1.4219    1.1254 N.am    1  LIG1       -0.2966
     29 N         -13.9137   -4.8416    1.1475 N.am    1  LIG1       -0.2692
     30 N          -1.6538    1.4455   -0.6713 N.pl3   1  LIG1       -0.3393
     31 N         -15.9504   -5.8953    0.8509 N.am    1  LIG1       -0.3021
     32 N          -4.3415    1.1807   -1.4111 N.pl3   1  LIG1       -0.3142
     33 O          -7.3494   -0.8744    3.1986 O.2     1  LIG1       -0.2702
     34 O         -14.0854   -6.7521   -0.2129 O.2     1  LIG1       -0.2539
     35 H          -0.7073    1.2640   -5.1450 H       1  LIG1        0.0639
     36 H          -9.6707   -5.5900   -0.3946 H       1  LIG1        0.0643
     37 H          -0.0134    1.4589   -2.7685 H       1  LIG1        0.0644
     38 H         -12.0809   -6.1512   -0.2429 H       1  LIG1        0.0643
     39 H         -12.7544   -2.7941    2.3802 H       1  LIG1        0.0649
     40 H         -10.2367   -1.2545    2.9233 H       1  LIG1        0.0651
     41 H          -3.1445    1.0334   -5.6571 H       1  LIG1        0.0840
     42 H          -6.4455   -0.4408   -2.1378 H       1  LIG1        0.0302
     43 H          -6.8230    0.5715   -0.7411 H       1  LIG1        0.0302
     44 H          -4.9011    0.8552    1.1337 H       1  LIG1        0.0302
     45 H          -3.3810   -0.0015    0.8725 H       1  LIG1        0.0302
     46 H          -7.8527   -1.6302   -0.4765 H       1  LIG1        0.0470
     47 H          -6.3129   -2.4552   -0.6723 H       1  LIG1        0.0470
     48 H          -4.5361   -2.1878    1.1072 H       1  LIG1        0.0470
     49 H          -4.8779   -1.1637    2.5020 H       1  LIG1        0.0470
     50 H          -4.1918   -0.8713   -1.2741 H       1  LIG1        0.0506
     51 H          -0.1071   -0.4751    0.4065 H       1  LIG1        0.0249
     52 H           0.3391   -0.2245   -1.2920 H       1  LIG1        0.0249
     53 H           1.4353    0.2938   -0.0069 H       1  LIG1        0.0249
     54 H          -0.7577    1.5318    1.8608 H       1  LIG1        0.0249
     55 H          -0.7708    3.1575    1.1547 H       1  LIG1        0.0249
     56 H           0.7682    2.3405    1.4879 H       1  LIG1        0.0249
     57 H         -17.3251   -6.5310   -0.5893 H       1  LIG1        0.0430
     58 H         -17.6957   -7.0256    1.0773 H       1  LIG1        0.0430
     59 H         -16.3872   -7.8287    0.1827 H       1  LIG1        0.0430
     60 H          -5.7104    2.2092   -0.1877 H       1  LIG1        0.0432
     61 H          -5.4772    2.9101   -1.8044 H       1  LIG1        0.0432
     62 H          -4.2213    3.1046   -0.5626 H       1  LIG1        0.0432
     63 H           0.2121    2.2551   -0.9575 H       1  LIG1        0.0497
     64 H          -7.7922   -3.7134    0.5465 H       1  LIG1        0.1529
     65 H         -14.5036   -4.2377    1.7291 H       1  LIG1        0.1573
     66 H          -2.3867    1.4238    0.0145 H       1  LIG1        0.1469
     67 H         -16.2928   -5.1645    1.4667 H       1  LIG1        0.1506
@<TRIPOS>BOND
     1     1     3   ar
     2     1     7   ar
     3     2     4   ar
     4     2     9   ar
     5     3    11   ar
     6     4    10   ar
     7     5     8   ar
     8     5    10   ar
     9     6     8   ar
    10     6    12   ar
    11     7    26   ar
    12     8     9   ar
    13     9    27   ar
    14    10    29    1
    15    11    13   ar
    16    11    30    1
    17    12    14    1
    18    12    27   ar
    19    13    26   ar
    20    13    32    1
    21    14    28   am
    22    14    33    2
    23    15    29   am
    24    15    31   am
    25    15    34    2
    26    16    18    1
    27    16    20    1
    28    17    19    1
    29    17    20    1
    30    18    28    1
    31    19    28    1
    32    20    32    1
    33    21    25    1
    34    22    25    1
    35    23    31    1
    36    24    32    1
    37    25    30    1
    38     1    35    1
    39     2    36    1
    40     3    37    1
    41     4    38    1
    42     5    39    1
    43     6    40    1
    44     7    41    1
    45    16    42    1
    46    16    43    1
    47    17    44    1
    48    17    45    1
    49    18    46    1
    50    18    47    1
    51    19    48    1
    52    19    49    1
    53    20    50    1
    54    21    51    1
    55    21    52    1
    56    21    53    1
    57    22    54    1
    58    22    55    1
    59    22    56    1
    60    23    57    1
    61    23    58    1
    62    23    59    1
    63    24    60    1
    64    24    61    1
    65    24    62    1
    66    25    63    1
    67    27    64    1
    68    29    65    1
    69    30    66    1
    70    31    67    1
