@<TRIPOS>MOLECULE
ChEBML198073
 48 50 0 0 0
SMALL
USER_CHARGES

@<TRIPOS>ATOM
      1 C          -2.2250    0.9423   -3.4710 C.ar    1  LIG1       -0.0431
      2 C          -1.9720   -0.4017   -3.2200 C.ar    1  LIG1       -0.0449
      3 C         -11.6361   -5.3543    0.8038 C.ar    1  LIG1       -0.0572
      4 C         -11.9818   -2.9667    0.9345 C.ar    1  LIG1       -0.0572
      5 C         -10.2698   -5.1680    1.0143 C.ar    1  LIG1       -0.0404
      6 C         -10.6155   -2.7804    1.1450 C.ar    1  LIG1       -0.0404
      7 C          -3.3164    1.5244   -2.8468 C.ar    1  LIG1        0.0291
      8 C         -12.4921   -4.2536    0.7639 C.ar    1  LIG1       -0.0481
      9 C          -2.8064   -1.1123   -2.3644 C.ar    1  LIG1        0.0957
     10 C          -9.7596   -3.8811    1.1850 C.ar    1  LIG1        0.0340
     11 C          -3.8717   -0.4382   -1.7895 C.ar    1  LIG1        0.1323
     12 C          -7.8714   -2.4264    1.6420 C.2     1  LIG1        0.3050
     13 C          -4.8326   -0.6853    0.4437 C.3     1  LIG1        0.0288
     14 C          -5.7843   -1.9243   -1.5251 C.3     1  LIG1        0.0288
     15 C          -6.2998   -0.6743    0.8673 C.3     1  LIG1        0.0315
     16 C          -6.4740   -2.7717   -0.4548 C.3     1  LIG1        0.0315
     17 C         -14.3213   -4.4252   -0.9422 C.3     1  LIG1       -0.0613
     18 C         -13.9529   -4.4529    0.5389 C.3     1  LIG1       -0.0307
     19 C          -2.5316   -2.5533   -2.0977 C.3     1  LIG1        0.4193
     20 N          -4.1493    0.8665   -2.0094 N.ar    1  LIG1       -0.2408
     21 N          -4.6963   -1.1349   -0.9444 N.pl3   1  LIG1       -0.3122
     22 N          -6.9180   -1.9883    0.7035 N.am    1  LIG1       -0.2824
     23 N          -8.3887   -3.6938    1.3963 N.am    1  LIG1       -0.2691
     24 O          -8.2163   -1.7438    2.6121 O.2     1  LIG1       -0.2537
     25 F          -1.4362   -3.0336   -2.7580 F       1  LIG1       -0.1660
     26 F          -2.3028   -2.8320   -0.7801 F       1  LIG1       -0.1660
     27 F          -3.5661   -3.3631   -2.4685 F       1  LIG1       -0.1660
     28 H          -1.5877    1.5160   -4.1341 H       1  LIG1        0.0639
     29 H          -1.1232   -0.8855   -3.6954 H       1  LIG1        0.0631
     30 H         -12.0248   -6.3604    0.6696 H       1  LIG1        0.0626
     31 H         -12.6415   -2.1034    0.9042 H       1  LIG1        0.0626
     32 H          -9.6121   -6.0330    1.0440 H       1  LIG1        0.0642
     33 H         -10.2283   -1.7730    1.2757 H       1  LIG1        0.0642
     34 H          -3.5579    2.5697   -3.0099 H       1  LIG1        0.0840
     35 H          -4.4157    0.3210    0.5746 H       1  LIG1        0.0485
     36 H          -4.2600   -1.3639    1.0871 H       1  LIG1        0.0485
     37 H          -5.3963   -2.5835   -2.3108 H       1  LIG1        0.0485
     38 H          -6.5151   -1.2489   -1.9882 H       1  LIG1        0.0485
     39 H          -6.3842   -0.3442    1.9080 H       1  LIG1        0.0486
     40 H          -6.8746    0.0291    0.2525 H       1  LIG1        0.0486
     41 H          -7.3336   -3.2831   -0.9006 H       1  LIG1        0.0486
     42 H          -5.7857   -3.5362   -0.0747 H       1  LIG1        0.0486
     43 H         -14.0084   -3.4842   -1.4073 H       1  LIG1        0.0234
     44 H         -15.4032   -4.5254   -1.0744 H       1  LIG1        0.0234
     45 H         -13.8361   -5.2449   -1.4830 H       1  LIG1        0.0234
     46 H         -14.2813   -5.4108    0.9735 H       1  LIG1        0.0313
     47 H         -14.5321   -3.6793    1.0683 H       1  LIG1        0.0313
     48 H          -7.8102   -4.5256    1.4169 H       1  LIG1        0.1573
@<TRIPOS>BOND
     1     1     2   ar
     2     1     7   ar
     3     2     9   ar
     4     3     5   ar
     5     3     8   ar
     6     4     6   ar
     7     4     8   ar
     8     5    10   ar
     9     6    10   ar
    10     7    20   ar
    11     8    18    1
    12     9    11   ar
    13     9    19    1
    14    10    23    1
    15    11    20   ar
    16    11    21    1
    17    12    22   am
    18    12    23   am
    19    12    24    2
    20    13    15    1
    21    13    21    1
    22    14    16    1
    23    14    21    1
    24    15    22    1
    25    16    22    1
    26    17    18    1
    27    19    25    1
    28    19    26    1
    29    19    27    1
    30     1    28    1
    31     2    29    1
    32     3    30    1
    33     4    31    1
    34     5    32    1
    35     6    33    1
    36     7    34    1
    37    13    35    1
    38    13    36    1
    39    14    37    1
    40    14    38    1
    41    15    39    1
    42    15    40    1
    43    16    41    1
    44    16    42    1
    45    17    43    1
    46    17    44    1
    47    17    45    1
    48    18    46    1
    49    18    47    1
    50    23    48    1
