@<TRIPOS>MOLECULE
ChEBML370006
 46 49 0 0 0
SMALL
USER_CHARGES

@<TRIPOS>ATOM
      1 C          -0.4955    0.3778   -3.1554 C.ar    1  LIG1       -0.0622
      2 C          -1.0051    1.1800   -2.1345 C.ar    1  LIG1       -0.0620
      3 C          -1.3623   -0.3636   -3.9583 C.ar    1  LIG1       -0.0620
      4 C          -2.3816    1.2408   -1.9164 C.ar    1  LIG1       -0.0590
      5 C          -2.7387   -0.3029   -3.7403 C.ar    1  LIG1       -0.0590
      6 C         -10.3323   -5.1109    0.7069 C.ar    1  LIG1       -0.0280
      7 C         -11.6577   -5.5329    0.8480 C.ar    1  LIG1       -0.0294
      8 C         -12.2986   -3.4188    1.8761 C.ar    1  LIG1       -0.0221
      9 C         -10.2611   -1.7872    2.0656 C.ar    1  LIG1       -0.0158
     10 C         -10.9716   -2.9737    1.7439 C.ar    1  LIG1        0.0107
     11 C          -3.2484    0.4993   -2.7193 C.ar    1  LIG1       -0.0477
     12 C         -10.0380   -3.8289    1.1675 C.ar    1  LIG1        0.0898
     13 C         -12.6251   -4.7039    1.4218 C.ar    1  LIG1        0.0721
     14 C          -8.9602   -1.9948    1.6693 C.ar    1  LIG1        0.1453
     15 C          -7.8018   -1.1532    1.7421 C.2     1  LIG1        0.2693
     16 C          -6.6942   -0.7875   -1.6544 C.3     1  LIG1       -0.0341
     17 C          -4.8813   -0.0756   -0.0489 C.3     1  LIG1       -0.0341
     18 C          -7.1855   -1.7904   -0.6122 C.3     1  LIG1        0.0148
     19 C          -5.4090   -1.1007    0.9519 C.3     1  LIG1        0.0148
     20 C          -5.1926   -0.5015   -1.4927 C.3     1  LIG1       -0.0344
     21 C          -4.7326    0.5641   -2.4845 C.3     1  LIG1       -0.0249
     22 N          -6.8428   -1.3401    0.7378 N.am    1  LIG1       -0.2961
     23 O          -7.6869   -0.3268    2.6454 O.2     1  LIG1       -0.2693
     24 O          -8.8145   -3.2303    1.1235 O.2     1  LIG1       -0.3042
     25 O         -13.9074   -5.1510    1.5437 O.3     1  LIG1       -0.3609
     26 H           0.5761    0.3317   -3.3259 H       1  LIG1        0.0622
     27 H          -0.3305    1.7583   -1.5099 H       1  LIG1        0.0623
     28 H          -0.9660   -0.9875   -4.7540 H       1  LIG1        0.0623
     29 H          -2.7697    1.8684   -1.1185 H       1  LIG1        0.0625
     30 H          -3.4064   -0.8842   -4.3708 H       1  LIG1        0.0625
     31 H          -9.5763   -5.7477    0.2631 H       1  LIG1        0.0651
     32 H         -11.9339   -6.5266    0.5023 H       1  LIG1        0.0651
     33 H         -13.0570   -2.7808    2.3205 H       1  LIG1        0.0657
     34 H         -10.6538   -0.8931    2.5299 H       1  LIG1        0.0660
     35 H          -6.8981   -1.1749   -2.6595 H       1  LIG1        0.0285
     36 H          -7.2596    0.1474   -1.5479 H       1  LIG1        0.0285
     37 H          -5.3418    0.8996    0.1558 H       1  LIG1        0.0285
     38 H          -3.7996    0.0430    0.0838 H       1  LIG1        0.0285
     39 H          -8.2663   -1.9302   -0.7143 H       1  LIG1        0.0469
     40 H          -6.7117   -2.7674   -0.7642 H       1  LIG1        0.0469
     41 H          -4.8954   -2.0611    0.8242 H       1  LIG1        0.0469
     42 H          -5.2029   -0.7562    1.9682 H       1  LIG1        0.0469
     43 H          -4.6399   -1.4258   -1.7076 H       1  LIG1        0.0307
     44 H          -5.0083    1.5549   -2.1091 H       1  LIG1        0.0319
     45 H          -5.2663    0.4353   -3.4318 H       1  LIG1        0.0319
     46 H         -14.4604   -4.4702    1.9572 H       1  LIG1        0.2182
@<TRIPOS>BOND
     1     1     2   ar
     2     1     3   ar
     3     2     4   ar
     4     3     5   ar
     5     4    11   ar
     6     5    11   ar
     7     6     7   ar
     8     6    12   ar
     9     7    13   ar
    10     8    10   ar
    11     8    13   ar
    12     9    10   ar
    13     9    14   ar
    14    10    12   ar
    15    11    21    1
    16    12    24   ar
    17    13    25    1
    18    14    15    1
    19    14    24   ar
    20    15    22   am
    21    15    23    2
    22    16    18    1
    23    16    20    1
    24    17    19    1
    25    17    20    1
    26    18    22    1
    27    19    22    1
    28    20    21    1
    29     1    26    1
    30     2    27    1
    31     3    28    1
    32     4    29    1
    33     5    30    1
    34     6    31    1
    35     7    32    1
    36     8    33    1
    37     9    34    1
    38    16    35    1
    39    16    36    1
    40    17    37    1
    41    17    38    1
    42    18    39    1
    43    18    40    1
    44    19    41    1
    45    19    42    1
    46    20    43    1
    47    21    44    1
    48    21    45    1
    49    25    46    1
