@<TRIPOS>MOLECULE
ChEBML248863
 59 62 0 0 0
SMALL
USER_CHARGES

@<TRIPOS>ATOM
      1 C          -1.4716    0.1171   -3.3535 C.ar    1  LIG1       -0.0411
      2 C          -9.7736   -5.5016    1.1420 C.ar    1  LIG1       -0.0383
      3 C         -11.0748   -5.9955    1.0122 C.ar    1  LIG1       -0.0377
      4 C          -2.4713    1.0720   -3.5018 C.ar    1  LIG1       -0.0266
      5 C         -12.0071   -3.7663    1.2535 C.ar    1  LIG1       -0.0304
      6 C         -10.1746   -1.9393    1.5828 C.ar    1  LIG1       -0.0261
      7 C          -1.7256   -0.9648   -2.5260 C.ar    1  LIG1        0.0293
      8 C         -10.7047   -3.2452    1.3869 C.ar    1  LIG1       -0.0003
      9 C          -9.6202   -4.1232    1.3282 C.ar    1  LIG1        0.0379
     10 C         -12.1757   -5.1431    1.0667 C.ar    1  LIG1        0.0437
     11 C          -3.6775    0.9180   -2.8276 C.ar    1  LIG1        0.1156
     12 C          -8.8042   -2.0477    1.6385 C.ar    1  LIG1        0.0947
     13 C          -3.8329   -0.1998   -2.0237 C.ar    1  LIG1        0.1506
     14 C          -7.8356   -1.0057    1.8227 C.2     1  LIG1        0.2599
     15 C          -5.4925   -1.7102   -1.0755 C.3     1  LIG1        0.0289
     16 C          -5.5020    0.7384   -0.5035 C.3     1  LIG1        0.0289
     17 C          -6.8749   -1.6792   -0.4232 C.3     1  LIG1        0.0303
     18 C          -5.9017    0.2081    0.8714 C.3     1  LIG1        0.0303
     19 C          -6.6428    1.7359   -4.3189 C.3     1  LIG1       -0.0384
     20 C          -4.8951    3.5134   -4.6900 C.3     1  LIG1       -0.0384
     21 C         -13.6168   -6.5179   -1.6176 C.3     1  LIG1        0.0225
     22 C          -5.1593    2.0705   -4.2876 C.3     1  LIG1        0.0588
     23 N          -2.8847   -1.1485   -1.8548 N.ar    1  LIG1       -0.2386
     24 N          -8.4793   -3.3687    1.4837 N.ar    1  LIG1       -0.3101
     25 N          -5.0220   -0.3515   -1.3577 N.pl3   1  LIG1       -0.3105
     26 N          -6.9044   -0.8497    0.7856 N.am    1  LIG1       -0.2936
     27 N         -13.4930   -5.6790    0.9305 N.pl3   1  LIG1       -0.2633
     28 O          -7.8503   -0.3035    2.8321 O.2     1  LIG1       -0.2701
     29 O         -15.7421   -5.7512   -0.3281 O.2     1  LIG1       -0.4814
     30 O         -14.0525   -4.0108   -1.0075 O.2     1  LIG1       -0.4814
     31 O          -4.6555    1.8500   -2.9698 O.3     1  LIG1       -0.3398
     32 S         -14.3636   -5.3382   -0.5154 S.O2    1  LIG1       -0.1957
     33 H          -0.5230    0.2147   -3.8688 H       1  LIG1        0.0640
     34 H          -8.9171   -6.1660    1.0993 H       1  LIG1        0.0643
     35 H         -11.2174   -7.0643    0.8668 H       1  LIG1        0.0643
     36 H          -2.3046    1.9321   -4.1441 H       1  LIG1        0.0652
     37 H         -12.8676   -3.1038    1.2957 H       1  LIG1        0.0650
     38 H         -10.7396   -1.0209    1.6730 H       1  LIG1        0.0651
     39 H          -0.9785   -1.7376   -2.3769 H       1  LIG1        0.0840
     40 H          -4.7809   -2.2108   -0.4065 H       1  LIG1        0.0485
     41 H          -5.5439   -2.2901   -2.0047 H       1  LIG1        0.0485
     42 H          -6.3655    1.2069   -0.9908 H       1  LIG1        0.0485
     43 H          -4.7355    1.5137   -0.3819 H       1  LIG1        0.0485
     44 H          -7.6124   -1.2548   -1.1155 H       1  LIG1        0.0486
     45 H          -7.1909   -2.7003   -0.1868 H       1  LIG1        0.0486
     46 H          -5.0317   -0.2210    1.3835 H       1  LIG1        0.0486
     47 H          -6.2759    1.0271    1.4951 H       1  LIG1        0.0486
     48 H          -7.2120    2.3920   -3.6533 H       1  LIG1        0.0257
     49 H          -7.0361    1.8422   -5.3356 H       1  LIG1        0.0257
     50 H          -6.8191    0.6964   -4.0211 H       1  LIG1        0.0257
     51 H          -5.4228    4.2119   -4.0333 H       1  LIG1        0.0257
     52 H          -5.2217    3.6876   -5.7208 H       1  LIG1        0.0257
     53 H          -3.8242    3.7421   -4.6566 H       1  LIG1        0.0257
     54 H         -14.0821   -6.4148   -2.5992 H       1  LIG1        0.0442
     55 H         -12.5483   -6.3054   -1.6768 H       1  LIG1        0.0442
     56 H         -13.7862   -7.5185   -1.2172 H       1  LIG1        0.0442
     57 H          -4.6189    1.3983   -4.9621 H       1  LIG1        0.0603
     58 H          -7.5391   -3.7399    1.4836 H       1  LIG1        0.1529
     59 H         -13.5939   -6.6475    1.2756 H       1  LIG1        0.1702
@<TRIPOS>BOND
     1     1     4   ar
     2     1     7   ar
     3     2     3   ar
     4     2     9   ar
     5     3    10   ar
     6     4    11   ar
     7     5     8   ar
     8     5    10   ar
     9     6     8   ar
    10     6    12   ar
    11     7    23   ar
    12     8     9   ar
    13     9    24   ar
    14    10    27    1
    15    11    13   ar
    16    11    31    1
    17    12    14    1
    18    12    24   ar
    19    13    23   ar
    20    13    25    1
    21    14    26   am
    22    14    28    2
    23    15    17    1
    24    15    25    1
    25    16    18    1
    26    16    25    1
    27    17    26    1
    28    18    26    1
    29    19    22    1
    30    20    22    1
    31    21    32    1
    32    22    31    1
    33    27    32    1
    34    29    32    2
    35    30    32    2
    36     1    33    1
    37     2    34    1
    38     3    35    1
    39     4    36    1
    40     5    37    1
    41     6    38    1
    42     7    39    1
    43    15    40    1
    44    15    41    1
    45    16    42    1
    46    16    43    1
    47    17    44    1
    48    17    45    1
    49    18    46    1
    50    18    47    1
    51    19    48    1
    52    19    49    1
    53    19    50    1
    54    20    51    1
    55    20    52    1
    56    20    53    1
    57    21    54    1
    58    21    55    1
    59    21    56    1
    60    22    57    1
    61    24    58    1
    62    27    59    1
