@<TRIPOS>MOLECULE
ChEBML212980
 42 44 0 0 0
SMALL
USER_CHARGES

@<TRIPOS>ATOM
      1 C         -12.0689   -3.4025    1.4296 C.ar    1  LIG1       -0.0501
      2 C         -10.0106   -1.8400    1.7848 C.ar    1  LIG1       -0.0262
      3 C         -11.4319   -5.6854    0.9007 C.ar    1  LIG1       -0.0545
      4 C         -10.7070   -3.0495    1.5073 C.ar    1  LIG1       -0.0017
      5 C         -12.4152   -4.7241    1.1253 C.ar    1  LIG1       -0.0501
      6 C         -10.0747   -5.3586    0.9723 C.ar    1  LIG1       -0.0289
      7 C          -9.7432   -4.0337    1.2773 C.ar    1  LIG1        0.0408
      8 C          -8.6627   -2.1083    1.7194 C.ar    1  LIG1        0.0947
      9 C          -7.5656   -1.2085    1.9249 C.2     1  LIG1        0.2602
     10 C          -6.4030   -2.1586   -0.0998 C.3     1  LIG1        0.0539
     11 C          -5.0604   -1.1564    1.7026 C.3     1  LIG1        0.0539
     12 C          -5.6926   -1.3032   -1.1385 C.3     1  LIG1       -0.0183
     13 C          -4.3183   -0.2885    0.6955 C.3     1  LIG1       -0.0183
     14 C         -13.8562   -5.1051    1.0407 C.3     1  LIG1       -0.0397
     15 C          -9.0480   -6.4133    0.7265 C.3     1  LIG1       -0.0379
     16 C          -3.5025   -0.2229   -1.6641 C.3     1  LIG1       -0.0453
     17 N          -8.5115   -3.4340    1.4125 N.ar    1  LIG1       -0.3099
     18 N          -6.3956   -1.4941    1.2097 N.am    1  LIG1       -0.2863
     19 N          -4.2959   -0.9909   -0.6447 N.4     1  LIG1        0.2462
     20 O          -7.6776   -0.2522    2.6901 O.2     1  LIG1       -0.2701
     21 H         -12.8387   -2.6555    1.6037 H       1  LIG1        0.0632
     22 H         -10.4526   -0.8781    2.0087 H       1  LIG1        0.0651
     23 H         -11.7247   -6.7071    0.6652 H       1  LIG1        0.0629
     24 H          -7.4195   -2.3711   -0.4396 H       1  LIG1        0.0525
     25 H          -5.8941   -3.1225    0.0219 H       1  LIG1        0.0525
     26 H          -4.5250   -2.0982    1.8726 H       1  LIG1        0.0525
     27 H          -5.1204   -0.6361    2.6634 H       1  LIG1        0.0525
     28 H          -5.5949   -1.8399   -2.0875 H       1  LIG1        0.0831
     29 H          -6.2047   -0.3480   -1.3005 H       1  LIG1        0.0831
     30 H          -4.8129    0.6784    0.5495 H       1  LIG1        0.0831
     31 H          -3.2799   -0.1322    1.0045 H       1  LIG1        0.0831
     32 H         -14.2257   -4.9710    0.0171 H       1  LIG1        0.0280
     33 H         -14.0079   -6.1519    1.3322 H       1  LIG1        0.0280
     34 H         -14.4687   -4.4943    1.7159 H       1  LIG1        0.0280
     35 H          -8.7885   -6.4519   -0.3383 H       1  LIG1        0.0280
     36 H          -8.1335   -6.2197    1.3015 H       1  LIG1        0.0280
     37 H          -9.4128   -7.4023    1.0325 H       1  LIG1        0.0280
     38 H          -4.0003    0.7356   -1.8218 H       1  LIG1        0.0777
     39 H          -2.4955   -0.0816   -1.2666 H       1  LIG1        0.0777
     40 H          -3.4824   -0.8105   -2.5839 H       1  LIG1        0.0777
     41 H          -7.6247   -3.9064    1.3015 H       1  LIG1        0.1530
     42 H          -3.8101   -1.8887   -0.5116 H       1  LIG1        0.2001
@<TRIPOS>BOND
     1     1     4   ar
     2     1     5   ar
     3     2     4   ar
     4     2     8   ar
     5     3     5   ar
     6     3     6   ar
     7     4     7   ar
     8     5    14    1
     9     6     7   ar
    10     6    15    1
    11     7    17   ar
    12     8     9    1
    13     8    17   ar
    14     9    18   am
    15     9    20    2
    16    10    12    1
    17    10    18    1
    18    11    13    1
    19    11    18    1
    20    12    19    1
    21    13    19    1
    22    16    19    1
    23     1    21    1
    24     2    22    1
    25     3    23    1
    26    10    24    1
    27    10    25    1
    28    11    26    1
    29    11    27    1
    30    12    28    1
    31    12    29    1
    32    13    30    1
    33    13    31    1
    34    14    32    1
    35    14    33    1
    36    14    34    1
    37    15    35    1
    38    15    36    1
    39    15    37    1
    40    16    38    1
    41    16    39    1
    42    16    40    1
    43    17    41    1
    44    19    42    1
