@<TRIPOS>MOLECULE
ChEBML205155
 67 71 0 0 0
SMALL
USER_CHARGES

@<TRIPOS>ATOM
      1 C          -2.1366   -2.6612   -5.3614 C.ar    1  LIG1       -0.0418
      2 C         -10.0563   -5.4816    1.3417 C.ar    1  LIG1       -0.0383
      3 C          -1.5862   -2.3537   -4.1221 C.ar    1  LIG1       -0.0360
      4 C         -11.3778   -5.9336    1.3990 C.ar    1  LIG1       -0.0377
      5 C         -12.1984   -3.6711    1.7233 C.ar    1  LIG1       -0.0304
      6 C         -10.2820   -1.9020    1.7668 C.ar    1  LIG1       -0.0261
      7 C          -3.4548   -3.0861   -5.3981 C.ar    1  LIG1        0.0292
      8 C         -10.8744   -3.1922    1.6689 C.ar    1  LIG1       -0.0003
      9 C          -9.8359   -4.1067    1.4798 C.ar    1  LIG1        0.0379
     10 C         -12.4340   -5.0440    1.5868 C.ar    1  LIG1        0.0437
     11 C          -2.3599   -2.4788   -2.9736 C.ar    1  LIG1        0.0674
     12 C          -8.9208   -2.0554    1.6379 C.ar    1  LIG1        0.0947
     13 C          -3.6682   -2.9118   -3.1173 C.ar    1  LIG1        0.1411
     14 C          -7.9047   -1.0445    1.6695 C.2     1  LIG1        0.2598
     15 C          -0.0031   -0.4579   -2.2243 C.3     1  LIG1       -0.0301
     16 C          -0.1750   -0.4942   -0.7341 C.3     1  LIG1       -0.0301
     17 C          -4.7977   -1.5286   -0.0647 C.3     1  LIG1       -0.0185
     18 C          -6.7385   -2.3106   -1.4883 C.3     1  LIG1       -0.0185
     19 C          -5.7190   -0.4761    0.5506 C.3     1  LIG1        0.0162
     20 C          -7.6167   -1.2508   -0.8210 C.3     1  LIG1        0.0162
     21 C          -5.2505   -1.9368   -1.4723 C.3     1  LIG1        0.0268
     22 C          -0.4547   -1.7210   -1.5519 C.3     1  LIG1        0.0285
     23 C           0.5418   -2.8291   -1.4640 C.3     1  LIG1       -0.0438
     24 C          -4.4758   -4.3006   -1.2253 C.3     1  LIG1        0.0018
     25 C         -14.2697   -6.4075   -0.8511 C.3     1  LIG1        0.0225
     26 N          -4.2376   -3.2199   -4.3041 N.ar    1  LIG1       -0.2394
     27 N          -8.6615   -3.3885    1.4649 N.ar    1  LIG1       -0.3101
     28 N          -7.1162   -0.9294    0.5165 N.am    1  LIG1       -0.2966
     29 N          -1.8047   -2.1681   -1.7183 N.pl3   1  LIG1       -0.3363
     30 N         -13.7735   -5.5374    1.6406 N.pl3   1  LIG1       -0.2633
     31 N          -4.4536   -3.0414   -1.9667 N.pl3   1  LIG1       -0.3142
     32 O          -7.7599   -0.3365    2.6646 O.2     1  LIG1       -0.2702
     33 O         -16.1743   -5.5520    0.7007 O.2     1  LIG1       -0.4814
     34 O         -14.5397   -3.8789   -0.2340 O.2     1  LIG1       -0.4814
     35 S         -14.8221   -5.1881    0.3203 S.O2    1  LIG1       -0.1957
     36 H          -1.5523   -2.5710   -6.2700 H       1  LIG1        0.0639
     37 H          -9.2348   -6.1749    1.1954 H       1  LIG1        0.0643
     38 H          -0.5543   -2.0178   -4.0642 H       1  LIG1        0.0644
     39 H         -11.5723   -6.9988    1.2942 H       1  LIG1        0.0643
     40 H         -13.0241   -2.9797    1.8698 H       1  LIG1        0.0650
     41 H         -10.8005   -0.9641    1.9159 H       1  LIG1        0.0651
     42 H          -3.9316   -3.3388   -6.3396 H       1  LIG1        0.0840
     43 H          -0.7224    0.1121   -2.8006 H       1  LIG1        0.0289
     44 H           1.0079   -0.4112   -2.6116 H       1  LIG1        0.0289
     45 H           0.7211   -0.4729   -0.1253 H       1  LIG1        0.0289
     46 H          -1.0103    0.0517   -0.3112 H       1  LIG1        0.0289
     47 H          -3.7696   -1.1484   -0.0870 H       1  LIG1        0.0302
     48 H          -4.8003   -2.4190    0.5770 H       1  LIG1        0.0302
     49 H          -6.8641   -3.2579   -0.9481 H       1  LIG1        0.0302
     50 H          -7.0834   -2.4781   -2.5155 H       1  LIG1        0.0302
     51 H          -5.3896   -0.2645    1.5710 H       1  LIG1        0.0470
     52 H          -5.6674    0.4685   -0.0024 H       1  LIG1        0.0470
     53 H          -7.6184   -0.3223   -1.4036 H       1  LIG1        0.0470
     54 H          -8.6508   -1.6068   -0.7745 H       1  LIG1        0.0470
     55 H          -5.0931   -1.0898   -2.1500 H       1  LIG1        0.0506
     56 H           0.1209   -3.7108   -0.9566 H       1  LIG1        0.0252
     57 H           1.4373   -2.5227   -0.9019 H       1  LIG1        0.0252
     58 H           0.8749   -3.1522   -2.4623 H       1  LIG1        0.0252
     59 H          -5.1402   -4.2162   -0.3614 H       1  LIG1        0.0432
     60 H          -3.4710   -4.5498   -0.8735 H       1  LIG1        0.0432
     61 H          -4.8335   -5.1106   -1.8667 H       1  LIG1        0.0432
     62 H         -14.8611   -6.3027   -1.7621 H       1  LIG1        0.0442
     63 H         -13.2132   -6.2317   -1.0588 H       1  LIG1        0.0442
     64 H         -14.4142   -7.3961   -0.4128 H       1  LIG1        0.0442
     65 H          -7.7422   -3.7911    1.3439 H       1  LIG1        0.1529
     66 H          -2.3995   -2.2730   -0.9165 H       1  LIG1        0.1472
     67 H         -13.8566   -6.4971    2.0141 H       1  LIG1        0.1702
@<TRIPOS>BOND
     1     1     3   ar
     2     1     7   ar
     3     2     4   ar
     4     2     9   ar
     5     3    11   ar
     6     4    10   ar
     7     5     8   ar
     8     5    10   ar
     9     6     8   ar
    10     6    12   ar
    11     7    26   ar
    12     8     9   ar
    13     9    27   ar
    14    10    30    1
    15    11    13   ar
    16    11    29    1
    17    12    14    1
    18    12    27   ar
    19    13    26   ar
    20    13    31    1
    21    14    28   am
    22    14    32    2
    23    15    16    1
    24    15    22    1
    25    16    22    1
    26    17    19    1
    27    17    21    1
    28    18    20    1
    29    18    21    1
    30    19    28    1
    31    20    28    1
    32    21    31    1
    33    22    23    1
    34    22    29    1
    35    24    31    1
    36    25    35    1
    37    30    35    1
    38    33    35    2
    39    34    35    2
    40     1    36    1
    41     2    37    1
    42     3    38    1
    43     4    39    1
    44     5    40    1
    45     6    41    1
    46     7    42    1
    47    15    43    1
    48    15    44    1
    49    16    45    1
    50    16    46    1
    51    17    47    1
    52    17    48    1
    53    18    49    1
    54    18    50    1
    55    19    51    1
    56    19    52    1
    57    20    53    1
    58    20    54    1
    59    21    55    1
    60    23    56    1
    61    23    57    1
    62    23    58    1
    63    24    59    1
    64    24    60    1
    65    24    61    1
    66    25    62    1
    67    25    63    1
    68    25    64    1
    69    27    65    1
    70    29    66    1
    71    30    67    1
