@<TRIPOS>MOLECULE
ChEBML162549
 46 48 0 0 0
SMALL
USER_CHARGES

@<TRIPOS>ATOM
      1 C          -1.7210    1.1126   -2.9138 C.ar    1  LIG1       -0.0622
      2 C         -12.5703   -4.6358    2.2232 C.ar    1  LIG1       -0.0615
      3 C          -2.9830    1.7047   -2.9606 C.ar    1  LIG1       -0.0620
      4 C          -1.5866   -0.2107   -2.4933 C.ar    1  LIG1       -0.0620
      5 C         -11.7783   -5.6584    1.7045 C.ar    1  LIG1       -0.0603
      6 C         -12.0735   -3.3322    2.3362 C.ar    1  LIG1       -0.0530
      7 C          -4.1107    0.9737   -2.5868 C.ar    1  LIG1       -0.0589
      8 C          -2.7142   -0.9416   -2.1194 C.ar    1  LIG1       -0.0589
      9 C         -10.4685   -5.4124    1.2831 C.ar    1  LIG1       -0.0402
     10 C          -9.9468   -1.8899    1.8873 C.ar    1  LIG1       -0.0262
     11 C         -10.7557   -3.0603    1.9179 C.ar    1  LIG1       -0.0022
     12 C          -3.9763   -0.3495   -2.1663 C.ar    1  LIG1       -0.0456
     13 C          -9.9851   -4.1046    1.4021 C.ar    1  LIG1        0.0378
     14 C          -8.7236   -2.2398    1.3636 C.ar    1  LIG1        0.0945
     15 C          -7.5393   -1.3741    1.1292 C.2     1  LIG1        0.2578
     16 C          -4.3894   -1.6071    0.5739 C.2     1  LIG1        0.2346
     17 C          -2.2317   -1.1824    1.7751 C.3     1  LIG1        0.0024
     18 C          -3.4183    0.7002    0.7245 C.3     1  LIG1        0.0024
     19 C          -5.1962   -1.1411   -1.7614 C.3     1  LIG1       -0.0005
     20 C          -5.5208   -1.0135   -0.2679 C.3     1  LIG1        0.1038
     21 N          -8.7565   -3.5774    1.0738 N.ar    1  LIG1       -0.3101
     22 N          -6.7232   -1.7409    0.0712 N.am    1  LIG1       -0.2982
     23 N          -3.3869   -0.7326    1.0072 N.am    1  LIG1       -0.3064
     24 O          -7.3378   -0.4185    1.8740 O.2     1  LIG1       -0.2704
     25 O          -4.3687   -2.8202    0.8098 O.2     1  LIG1       -0.2753
     26 H          -0.8432    1.6815   -3.2061 H       1  LIG1        0.0622
     27 H         -13.5862   -4.8515    2.5435 H       1  LIG1        0.0623
     28 H          -3.0880    2.7347   -3.2890 H       1  LIG1        0.0623
     29 H          -0.6043   -0.6723   -2.4577 H       1  LIG1        0.0623
     30 H         -12.1844   -6.6635    1.6261 H       1  LIG1        0.0623
     31 H         -12.7019   -2.5443    2.7420 H       1  LIG1        0.0629
     32 H          -5.0900    1.4434   -2.6263 H       1  LIG1        0.0625
     33 H          -2.5999   -1.9719   -1.7930 H       1  LIG1        0.0625
     34 H          -9.8520   -6.2087    0.8797 H       1  LIG1        0.0642
     35 H         -10.2336   -0.8994    2.2148 H       1  LIG1        0.0651
     36 H          -1.4169   -1.4591    1.1009 H       1  LIG1        0.0433
     37 H          -2.4968   -2.0523    2.3821 H       1  LIG1        0.0433
     38 H          -1.8847   -0.3851    2.4379 H       1  LIG1        0.0433
     39 H          -3.9436    1.2295    1.5237 H       1  LIG1        0.0433
     40 H          -3.9353    0.8878   -0.2206 H       1  LIG1        0.0433
     41 H          -2.4008    1.0935    0.6513 H       1  LIG1        0.0433
     42 H          -6.0574   -0.8204   -2.3636 H       1  LIG1        0.0340
     43 H          -5.0339   -2.1911   -2.0359 H       1  LIG1        0.0340
     44 H          -5.7179    0.0193    0.0329 H       1  LIG1        0.0608
     45 H          -7.9910   -4.1052    0.6770 H       1  LIG1        0.1529
     46 H          -6.9197   -2.5812   -0.4624 H       1  LIG1        0.1506
@<TRIPOS>BOND
     1     1     3   ar
     2     1     4   ar
     3     2     5   ar
     4     2     6   ar
     5     3     7   ar
     6     4     8   ar
     7     5     9   ar
     8     6    11   ar
     9     7    12   ar
    10     8    12   ar
    11     9    13   ar
    12    10    11   ar
    13    10    14   ar
    14    11    13   ar
    15    12    19    1
    16    13    21   ar
    17    14    15    1
    18    14    21   ar
    19    15    22   am
    20    15    24    2
    21    16    20    1
    22    16    23   am
    23    16    25    2
    24    17    23    1
    25    18    23    1
    26    19    20    1
    27    20    22    1
    28     1    26    1
    29     2    27    1
    30     3    28    1
    31     4    29    1
    32     5    30    1
    33     6    31    1
    34     7    32    1
    35     8    33    1
    36     9    34    1
    37    10    35    1
    38    17    36    1
    39    17    37    1
    40    17    38    1
    41    18    39    1
    42    18    40    1
    43    18    41    1
    44    19    42    1
    45    19    43    1
    46    20    44    1
    47    21    45    1
    48    22    46    1
