@<TRIPOS>MOLECULE
ChEBML596798
 39 42 0 0 0
SMALL
USER_CHARGES

@<TRIPOS>ATOM
      1 C         -12.7752   -6.6435    1.8363 C.1     1  LIG1        0.0992
      2 C          -2.3263    0.7855   -5.1710 C.1     1  LIG1        0.0992
      3 C         -12.7451   -4.2348    2.2246 C.ar    1  LIG1       -0.0437
      4 C          -3.8176    1.1588   -3.2695 C.ar    1  LIG1       -0.0417
      5 C         -12.0880   -2.9991    2.2316 C.ar    1  LIG1       -0.0517
      6 C          -6.9466   -0.6737    1.7141 C.ar    1  LIG1       -0.0505
      7 C          -6.4925   -2.3418    0.0265 C.ar    1  LIG1       -0.0505
      8 C          -4.1488    0.9562   -1.9298 C.ar    1  LIG1       -0.0284
      9 C          -5.7186   -0.0686    1.4465 C.ar    1  LIG1       -0.0306
     10 C          -5.2645   -1.7367   -0.2411 C.ar    1  LIG1       -0.0306
     11 C         -10.7386   -5.3575    1.4384 C.ar    1  LIG1       -0.0223
     12 C          -1.8436   -0.2054   -2.9879 C.ar    1  LIG1       -0.0230
     13 C          -9.7839   -1.8860    1.7250 C.ar    1  LIG1       -0.0310
     14 C         -12.0788   -5.3947    1.8337 C.ar    1  LIG1        0.0539
     15 C          -2.6650    0.5779   -3.7986 C.ar    1  LIG1        0.0536
     16 C         -10.7367   -2.9369    1.8370 C.ar    1  LIG1       -0.0023
     17 C          -7.3335   -1.8104    1.0042 C.ar    1  LIG1       -0.0040
     18 C         -10.0945   -4.1152    1.4503 C.ar    1  LIG1        0.0390
     19 C          -4.8776   -0.6000    0.4689 C.ar    1  LIG1        0.0821
     20 C          -3.3274    0.1729   -1.1191 C.ar    1  LIG1        0.1007
     21 C          -2.1748   -0.4079   -1.6480 C.ar    1  LIG1        0.0727
     22 C          -8.6036   -2.4363    1.2811 C.ar    1  LIG1        0.0383
     23 N         -13.3404   -7.6571    1.8385 N.1     1  LIG1       -0.1924
     24 N          -2.0513    0.9541   -6.2858 N.1     1  LIG1       -0.1924
     25 N          -8.8009   -3.7812    1.1180 N.ar    1  LIG1       -0.3139
     26 O          -3.6794   -0.0096    0.2077 O.3     1  LIG1       -0.3088
     27 CL         -1.1400   -1.3787   -0.6669 Cl      1  LIG1       -0.0814
     28 H         -13.7885   -4.2721    2.5311 H       1  LIG1        0.0637
     29 H          -4.4682    1.7710   -3.8897 H       1  LIG1        0.0637
     30 H         -12.6192   -2.1027    2.5385 H       1  LIG1        0.0630
     31 H          -7.5910   -0.2474    2.4792 H       1  LIG1        0.0630
     32 H          -6.7797   -3.2273   -0.5355 H       1  LIG1        0.0630
     33 H          -5.0479    1.4122   -1.5240 H       1  LIG1        0.0651
     34 H          -5.4227    0.8165    2.0030 H       1  LIG1        0.0650
     35 H          -4.6135   -2.1553   -1.0039 H       1  LIG1        0.0650
     36 H         -10.2083   -6.2543    1.1316 H       1  LIG1        0.0656
     37 H          -0.9444   -0.6591   -3.4006 H       1  LIG1        0.0653
     38 H          -9.9501   -0.8400    1.9474 H       1  LIG1        0.0650
     39 H          -8.1019   -4.4389    0.8001 H       1  LIG1        0.1528
@<TRIPOS>BOND
     1     1    14    1
     2     1    23    3
     3     2    15    1
     4     2    24    3
     5     3     5   ar
     6     3    14   ar
     7     4     8   ar
     8     4    15   ar
     9     5    16   ar
    10     6     9   ar
    11     6    17   ar
    12     7    10   ar
    13     7    17   ar
    14     8    20   ar
    15     9    19   ar
    16    10    19   ar
    17    11    14   ar
    18    11    18   ar
    19    12    15   ar
    20    12    21   ar
    21    13    16   ar
    22    13    22   ar
    23    16    18   ar
    24    17    22    1
    25    18    25   ar
    26    19    26    1
    27    20    21   ar
    28    20    26    1
    29    21    27    1
    30    22    25   ar
    31     3    28    1
    32     4    29    1
    33     5    30    1
    34     6    31    1
    35     7    32    1
    36     8    33    1
    37     9    34    1
    38    10    35    1
    39    11    36    1
    40    12    37    1
    41    13    38    1
    42    25    39    1
