@<TRIPOS>MOLECULE
ChEBML233155
 52 56 0 0 0
SMALL
USER_CHARGES

@<TRIPOS>ATOM
      1 C         -12.4069   -4.7534    1.2402 C.ar    1  LIG1       -0.0615
      2 C          -1.2571    0.6703   -3.4555 C.ar    1  LIG1       -0.0614
      3 C          -2.3888   -4.6986   -3.3573 C.ar    1  LIG1       -0.0614
      4 C         -11.4726   -5.5695    0.6054 C.ar    1  LIG1       -0.0603
      5 C          -2.1914    1.6608   -3.7078 C.ar    1  LIG1       -0.0603
      6 C          -1.4910   -5.3996   -2.5522 C.ar    1  LIG1       -0.0593
      7 C         -12.0222   -3.5357    1.8132 C.ar    1  LIG1       -0.0530
      8 C          -1.5917   -0.3935   -2.6216 C.ar    1  LIG1       -0.0509
      9 C          -2.9256   -3.4897   -2.9143 C.ar    1  LIG1       -0.0498
     10 C         -10.1280   -5.1966    0.5227 C.ar    1  LIG1       -0.0402
     11 C          -3.4482    1.5910   -3.1069 C.ar    1  LIG1       -0.0404
     12 C          -1.1301   -4.8920   -1.3042 C.ar    1  LIG1       -0.0256
     13 C          -9.9472   -2.0029    2.1999 C.ar    1  LIG1       -0.0262
     14 C         -10.6720   -3.1389    1.7423 C.ar    1  LIG1       -0.0022
     15 C          -2.8707   -0.4877   -2.0324 C.ar    1  LIG1        0.0214
     16 C          -2.5647   -2.9820   -1.6663 C.ar    1  LIG1        0.0361
     17 C          -9.7580   -3.9768    1.1000 C.ar    1  LIG1        0.0378
     18 C          -3.8183    0.5307   -2.2483 C.ar    1  LIG1        0.0355
     19 C          -1.6669   -3.6832   -0.8612 C.ar    1  LIG1        0.1321
     20 C          -8.6317   -2.1703    1.8336 C.ar    1  LIG1        0.0944
     21 C          -3.1320   -1.7093   -1.2040 C.2     1  LIG1        0.0772
     22 C          -7.4828   -1.2615    2.0815 C.2     1  LIG1        0.2573
     23 C          -5.5655   -0.1769   -0.5604 C.3     1  LIG1        0.0324
     24 C          -4.4560   -0.5580    0.4153 C.3     1  LIG1        0.0816
     25 C          -5.0433   -0.9279    1.7765 C.3     1  LIG1        0.0354
     26 N          -3.8007   -1.7482   -0.1038 N.2     1  LIG1       -0.2773
     27 N          -8.5274   -3.3636    1.1705 N.ar    1  LIG1       -0.3101
     28 N          -5.0624    0.6267   -1.6523 N.pl3   1  LIG1       -0.3417
     29 N          -6.2402   -1.6778    1.5966 N.am    1  LIG1       -0.3081
     30 O          -7.6661   -0.2191    2.7046 O.2     1  LIG1       -0.2704
     31 F          -1.3127   -3.2052    0.3405 F       1  LIG1       -0.2062
     32 H         -13.4470   -5.0644    1.2911 H       1  LIG1        0.0623
     33 H          -0.2703    0.7221   -3.9055 H       1  LIG1        0.0623
     34 H          -2.6699   -5.0940   -4.3289 H       1  LIG1        0.0623
     35 H         -11.7933   -6.5110    0.1675 H       1  LIG1        0.0623
     36 H          -1.9440    2.4956   -4.3564 H       1  LIG1        0.0623
     37 H          -1.0729   -6.3409   -2.8972 H       1  LIG1        0.0623
     38 H         -12.7610   -2.9088    2.3047 H       1  LIG1        0.0629
     39 H          -0.8322   -1.1512   -2.4409 H       1  LIG1        0.0630
     40 H          -3.6241   -2.9522   -3.5505 H       1  LIG1        0.0631
     41 H          -9.4008   -5.8324    0.0288 H       1  LIG1        0.0642
     42 H          -4.1524    2.3991   -3.3028 H       1  LIG1        0.0642
     43 H          -0.4311   -5.4376   -0.6773 H       1  LIG1        0.0653
     44 H         -10.3497   -1.1558    2.7393 H       1  LIG1        0.0651
     45 H          -6.0674   -1.0651   -0.9640 H       1  LIG1        0.0488
     46 H          -6.3327    0.4141   -0.0466 H       1  LIG1        0.0488
     47 H          -3.7380    0.2574    0.5708 H       1  LIG1        0.0584
     48 H          -5.2672   -0.0174    2.3161 H       1  LIG1        0.0490
     49 H          -4.3233   -1.5255    2.3186 H       1  LIG1        0.0490
     50 H          -7.6722   -3.7430    0.7877 H       1  LIG1        0.1529
     51 H          -5.6858    1.3467   -2.0036 H       1  LIG1        0.1466
     52 H          -6.1724   -2.5939    1.1427 H       1  LIG1        0.1498
@<TRIPOS>BOND
     1     1     4   ar
     2     1     7   ar
     3     2     5   ar
     4     2     8   ar
     5     3     6   ar
     6     3     9   ar
     7     4    10   ar
     8     5    11   ar
     9     6    12   ar
    10     7    14   ar
    11     8    15   ar
    12     9    16   ar
    13    10    17   ar
    14    11    18   ar
    15    12    19   ar
    16    13    14   ar
    17    13    20   ar
    18    14    17   ar
    19    15    18   ar
    20    15    21    1
    21    16    19   ar
    22    16    21    1
    23    17    27   ar
    24    18    28    1
    25    19    31    1
    26    20    22    1
    27    20    27   ar
    28    21    26    2
    29    22    29   am
    30    22    30    2
    31    23    24    1
    32    23    28    1
    33    24    25    1
    34    24    26    1
    35    25    29    1
    36     1    32    1
    37     2    33    1
    38     3    34    1
    39     4    35    1
    40     5    36    1
    41     6    37    1
    42     7    38    1
    43     8    39    1
    44     9    40    1
    45    10    41    1
    46    11    42    1
    47    12    43    1
    48    13    44    1
    49    23    45    1
    50    23    46    1
    51    24    47    1
    52    25    48    1
    53    25    49    1
    54    27    50    1
    55    28    51    1
    56    29    52    1
