@<TRIPOS>MOLECULE
ChEBML1113221
 47 50 0 0 0
SMALL
USER_CHARGES

@<TRIPOS>ATOM
      1 C          -2.5158    0.7631   -3.6842 C.ar    1  LIG1       -0.0621
      2 C         -11.6849   -5.6181    0.5831 C.ar    1  LIG1       -0.0600
      3 C          -1.8243   -0.2598   -3.0353 C.ar    1  LIG1       -0.0604
      4 C          -3.6462    1.3260   -3.0916 C.ar    1  LIG1       -0.0604
      5 C         -12.4887   -5.0344    1.5562 C.ar    1  LIG1       -0.0610
      6 C         -10.4320   -5.0779    0.2788 C.ar    1  LIG1       -0.0352
      7 C          -2.2633   -0.7199   -1.7938 C.ar    1  LIG1       -0.0408
      8 C          -4.0851    0.8659   -1.8501 C.ar    1  LIG1       -0.0408
      9 C         -12.0639   -3.8983    2.2498 C.ar    1  LIG1       -0.0459
     10 C          -9.9787   -3.9303    0.9646 C.ar    1  LIG1        0.0799
     11 C          -3.3937   -0.1571   -1.2012 C.ar    1  LIG1        0.0300
     12 C         -10.8045   -3.3610    1.9388 C.ar    1  LIG1        0.0409
     13 C          -8.6792   -2.2569    1.5793 C.ar    1  LIG1        0.1885
     14 C          -5.7010   -0.2903    1.4329 C.2     1  LIG1        0.0799
     15 C          -6.5448    0.3298    2.4544 C.2     1  LIG1        0.0834
     16 C          -6.4703   -1.4456    0.9308 C.2     1  LIG1        0.2751
     17 C          -4.4925    0.0829    1.0187 C.2     1  LIG1        0.0185
     18 C          -7.2546    1.9295    4.2043 C.2     1  LIG1        0.2667
     19 C          -3.7624    1.2729    1.5706 C.3     1  LIG1       -0.0256
     20 C          -8.7350    3.7052    4.7141 C.3     1  LIG1        0.0453
     21 C          -6.1613    1.5397    3.2351 C.3     1  LIG1        0.0786
     22 N          -8.7653   -3.2867    0.7702 N.ar    1  LIG1       -0.2236
     23 N          -7.6710   -0.3135    2.5963 N.2     1  LIG1       -0.1749
     24 N          -7.6414   -1.3709    1.6966 N.am    1  LIG1       -0.1314
     25 N          -3.8330   -0.6171    0.0410 N.pl3   1  LIG1       -0.3178
     26 O          -6.1297   -2.2333    0.0690 O.2     1  LIG1       -0.2691
     27 O          -7.6950    1.2286    5.1052 O.2     1  LIG1       -0.2661
     28 O          -7.6809    3.1912    3.8938 O.3     1  LIG1       -0.3190
     29 S         -10.0147   -1.9843    2.6127 S.2     1  LIG1       -0.0499
     30 H          -2.1741    1.1212   -4.6511 H       1  LIG1        0.0622
     31 H         -12.0318   -6.5017    0.0544 H       1  LIG1        0.0623
     32 H          -0.9445   -0.6979   -3.4966 H       1  LIG1        0.0623
     33 H          -4.1846    2.1226   -3.5971 H       1  LIG1        0.0623
     34 H         -13.4607   -5.4659    1.7812 H       1  LIG1        0.0623
     35 H          -9.8128   -5.5416   -0.4838 H       1  LIG1        0.0646
     36 H          -1.7175   -1.5175   -1.2963 H       1  LIG1        0.0642
     37 H          -4.9672    1.3123   -1.3979 H       1  LIG1        0.0642
     38 H         -12.6962   -3.4486    3.0092 H       1  LIG1        0.0635
     39 H          -3.1457    0.9836    2.4281 H       1  LIG1        0.0293
     40 H          -4.4544    2.0528    1.9063 H       1  LIG1        0.0293
     41 H          -3.1105    1.7127    0.8084 H       1  LIG1        0.0293
     42 H          -8.9976    4.7128    4.3823 H       1  LIG1        0.0536
     43 H          -8.4088    3.7269    5.7570 H       1  LIG1        0.0536
     44 H          -9.6076    3.0544    4.6208 H       1  LIG1        0.0536
     45 H          -5.9905    2.3753    2.5504 H       1  LIG1        0.0440
     46 H          -5.2441    1.3273    3.7914 H       1  LIG1        0.0440
     47 H          -3.6534   -1.5810    0.2692 H       1  LIG1        0.1524
@<TRIPOS>BOND
     1     1     3   ar
     2     1     4   ar
     3     2     5   ar
     4     2     6   ar
     5     3     7   ar
     6     4     8   ar
     7     5     9   ar
     8     6    10   ar
     9     7    11   ar
    10     8    11   ar
    11     9    12   ar
    12    10    12   ar
    13    10    22   ar
    14    11    25    1
    15    12    29   ar
    16    13    22   ar
    17    13    24    1
    18    13    29   ar
    19    14    15    1
    20    14    16    1
    21    14    17    2
    22    15    21    1
    23    15    23    2
    24    16    24   am
    25    16    26    2
    26    17    19    1
    27    17    25    1
    28    18    21    1
    29    18    27    2
    30    18    28    1
    31    20    28    1
    32    23    24    1
    33     1    30    1
    34     2    31    1
    35     3    32    1
    36     4    33    1
    37     5    34    1
    38     6    35    1
    39     7    36    1
    40     8    37    1
    41     9    38    1
    42    19    39    1
    43    19    40    1
    44    19    41    1
    45    20    42    1
    46    20    43    1
    47    20    44    1
    48    21    45    1
    49    21    46    1
    50    25    47    1
