@<TRIPOS>MOLECULE
ChEBML232453
 37 39 0 0 0
SMALL
USER_CHARGES

@<TRIPOS>ATOM
      1 C          -4.0365   -2.5743    1.5532 C.ar    1  LIG1       -0.0596
      2 C          -5.3011   -2.3264    2.0868 C.ar    1  LIG1       -0.0506
      3 C         -10.2956   -5.1431    0.3935 C.ar    1  LIG1       -0.0376
      4 C          -3.6991   -2.0720    0.2964 C.ar    1  LIG1       -0.0410
      5 C         -11.6244   -5.5382    0.5731 C.ar    1  LIG1       -0.0299
      6 C         -12.0727   -3.6010    1.9671 C.ar    1  LIG1       -0.0226
      7 C          -9.9807   -2.0721    2.2684 C.ar    1  LIG1       -0.0275
      8 C         -10.7375   -3.1826    1.8004 C.ar    1  LIG1        0.0003
      9 C          -6.2286   -1.5765    1.3636 C.ar    1  LIG1        0.0286
     10 C          -5.8913   -1.0743    0.1066 C.ar    1  LIG1       -0.0191
     11 C          -9.8815   -3.9618    1.0190 C.ar    1  LIG1        0.0379
     12 C          -4.6265   -1.3221   -0.4269 C.ar    1  LIG1        0.0270
     13 C         -12.5009   -4.7805    1.3472 C.ar    1  LIG1        0.0753
     14 C          -8.7036   -2.1965    1.7717 C.ar    1  LIG1        0.0797
     15 C          -7.5875   -1.3265    1.9678 C.2     1  LIG1        0.2069
     16 C          -6.8875   -0.2701   -0.6693 C.3     1  LIG1       -0.0372
     17 C         -14.1688   -6.4008    0.8488 C.3     1  LIG1        0.0422
     18 N          -8.6536   -3.3392    1.0191 N.ar    1  LIG1       -0.3112
     19 N          -4.2653   -0.8223   -1.6976 N.pl3   1  LIG1       -0.3580
     20 O          -7.6845   -0.2911    2.6670 O.2     1  LIG1       -0.2871
     21 O         -13.7909   -5.1919    1.5037 O.3     1  LIG1       -0.3493
     22 H          -3.3142   -3.1580    2.1165 H       1  LIG1        0.0623
     23 H          -5.5521   -2.7235    3.0672 H       1  LIG1        0.0630
     24 H          -9.6141   -5.7334   -0.2098 H       1  LIG1        0.0643
     25 H          -2.7108   -2.2714   -0.1089 H       1  LIG1        0.0642
     26 H         -11.9718   -6.4526    0.0976 H       1  LIG1        0.0651
     27 H         -12.7625   -3.0153    2.5685 H       1  LIG1        0.0657
     28 H         -10.3366   -1.2699    2.9012 H       1  LIG1        0.0651
     29 H          -6.7849    0.7925   -0.4257 H       1  LIG1        0.0280
     30 H          -6.7429   -0.4003   -1.7475 H       1  LIG1        0.0280
     31 H          -7.9113   -0.5869   -0.4409 H       1  LIG1        0.0280
     32 H         -15.2205   -6.6143    1.0548 H       1  LIG1        0.0535
     33 H         -13.5424   -7.2216    1.2071 H       1  LIG1        0.0535
     34 H         -14.0280   -6.2808   -0.2280 H       1  LIG1        0.0535
     35 H          -7.8357   -3.6794    0.5324 H       1  LIG1        0.1529
     36 H          -3.3372   -0.9752   -2.0340 H       1  LIG1        0.1426
     37 H          -4.9125   -0.2461   -2.1947 H       1  LIG1        0.1426
@<TRIPOS>BOND
     1     1     2   ar
     2     1     4   ar
     3     2     9   ar
     4     3     5   ar
     5     3    11   ar
     6     4    12   ar
     7     5    13   ar
     8     6     8   ar
     9     6    13   ar
    10     7     8   ar
    11     7    14   ar
    12     8    11   ar
    13     9    10   ar
    14     9    15    1
    15    10    12   ar
    16    10    16    1
    17    11    18   ar
    18    12    19    1
    19    13    21    1
    20    14    15    1
    21    14    18   ar
    22    15    20    2
    23    17    21    1
    24     1    22    1
    25     2    23    1
    26     3    24    1
    27     4    25    1
    28     5    26    1
    29     6    27    1
    30     7    28    1
    31    16    29    1
    32    16    30    1
    33    16    31    1
    34    17    32    1
    35    17    33    1
    36    17    34    1
    37    18    35    1
    38    19    36    1
    39    19    37    1
