@<TRIPOS>MOLECULE
ChEBML296727
 46 48 0 0 0
SMALL
USER_CHARGES

@<TRIPOS>ATOM
      1 C          -2.3971    1.0616   -3.4804 C.ar    1  LIG1       -0.0432
      2 C          -1.7791   -0.1228   -3.0947 C.ar    1  LIG1       -0.0466
      3 C         -11.8864   -4.7919    1.6202 C.ar    1  LIG1       -0.0482
      4 C         -12.1841   -2.5388    0.8006 C.ar    1  LIG1       -0.0482
      5 C         -10.5030   -4.6476    1.5146 C.ar    1  LIG1       -0.0401
      6 C         -10.8008   -2.3945    0.6949 C.ar    1  LIG1       -0.0401
      7 C          -3.5654    1.4250   -2.8304 C.ar    1  LIG1        0.0271
      8 C         -12.7269   -3.7375    1.2632 C.ar    1  LIG1        0.0556
      9 C          -2.3405   -0.8964   -2.0850 C.ar    1  LIG1        0.0773
     10 C          -9.9602   -3.4489    1.0520 C.ar    1  LIG1        0.0340
     11 C          -3.5113   -0.4451   -1.4973 C.ar    1  LIG1        0.0558
     12 C          -7.9754   -2.0588    1.1014 C.2     1  LIG1        0.3049
     13 C          -5.1408   -2.2677   -1.0044 C.3     1  LIG1       -0.0288
     14 C          -4.8861   -0.2967    0.5784 C.3     1  LIG1       -0.0288
     15 C          -5.9162   -2.9994    0.0922 C.3     1  LIG1        0.0163
     16 C          -5.6498   -1.0995    1.6291 C.3     1  LIG1        0.0163
     17 C          -4.1595   -1.2364   -0.4080 C.3     1  LIG1        0.0048
     18 C         -14.2060   -3.8920    1.3763 C.3     1  LIG1        0.4160
     19 C          -1.6831   -2.1661   -1.6670 C.3     1  LIG1        0.4177
     20 N          -4.1405    0.6997   -1.8453 N.ar    1  LIG1       -0.2603
     21 N          -6.5757   -2.0339    0.9740 N.am    1  LIG1       -0.2855
     22 N          -8.5710   -3.3035    0.9460 N.am    1  LIG1       -0.2691
     23 O          -8.6381   -1.0432    1.3419 O.2     1  LIG1       -0.2537
     24 F         -14.5947   -5.1158    1.8423 F       1  LIG1       -0.1661
     25 F         -14.7871   -2.9888    2.2201 F       1  LIG1       -0.1661
     26 F         -14.8431   -3.7371    0.1791 F       1  LIG1       -0.1661
     27 F          -0.5385   -2.4459   -2.3595 F       1  LIG1       -0.1660
     28 F          -1.3147   -2.1859   -0.3511 F       1  LIG1       -0.1660
     29 F          -2.4873   -3.2566   -1.8367 F       1  LIG1       -0.1660
     30 H          -1.9781    1.6819   -4.2644 H       1  LIG1        0.0639
     31 H          -0.8611   -0.4337   -3.5858 H       1  LIG1        0.0630
     32 H         -12.3007   -5.7303    1.9796 H       1  LIG1        0.0629
     33 H         -12.8316   -1.7124    0.5195 H       1  LIG1        0.0629
     34 H          -9.8575   -5.4758    1.7960 H       1  LIG1        0.0642
     35 H         -10.3884   -1.4562    0.3322 H       1  LIG1        0.0642
     36 H          -4.0863    2.3395   -3.0944 H       1  LIG1        0.0839
     37 H          -4.5979   -2.9945   -1.6209 H       1  LIG1        0.0289
     38 H          -5.8531   -1.7589   -1.6681 H       1  LIG1        0.0289
     39 H          -5.5881    0.3477    0.0323 H       1  LIG1        0.0289
     40 H          -4.1629    0.3645    1.0710 H       1  LIG1        0.0289
     41 H          -6.6417   -3.6801   -0.3634 H       1  LIG1        0.0470
     42 H          -5.2385   -3.6036    0.7068 H       1  LIG1        0.0470
     43 H          -4.9525   -1.7002    2.2260 H       1  LIG1        0.0470
     44 H          -6.1479   -0.4246    2.3244 H       1  LIG1        0.0470
     45 H          -3.3663   -1.7707    0.1294 H       1  LIG1        0.0370
     46 H          -7.9959   -4.1134    0.7543 H       1  LIG1        0.1573
@<TRIPOS>BOND
     1     1     2   ar
     2     1     7   ar
     3     2     9   ar
     4     3     5   ar
     5     3     8   ar
     6     4     6   ar
     7     4     8   ar
     8     5    10   ar
     9     6    10   ar
    10     7    20   ar
    11     8    18    1
    12     9    11   ar
    13     9    19    1
    14    10    22    1
    15    11    17    1
    16    11    20   ar
    17    12    21   am
    18    12    22   am
    19    12    23    2
    20    13    15    1
    21    13    17    1
    22    14    16    1
    23    14    17    1
    24    15    21    1
    25    16    21    1
    26    18    24    1
    27    18    25    1
    28    18    26    1
    29    19    27    1
    30    19    28    1
    31    19    29    1
    32     1    30    1
    33     2    31    1
    34     3    32    1
    35     4    33    1
    36     5    34    1
    37     6    35    1
    38     7    36    1
    39    13    37    1
    40    13    38    1
    41    14    39    1
    42    14    40    1
    43    15    41    1
    44    15    42    1
    45    16    43    1
    46    16    44    1
    47    17    45    1
    48    22    46    1
