@<TRIPOS>MOLECULE
ChEBML369911
 48 52 0 0 0
SMALL
USER_CHARGES

@<TRIPOS>ATOM
      1 C          -1.2104    1.0947   -3.3344 C.ar    1  LIG1       -0.0622
      2 C          -2.4155    1.4683   -3.9291 C.ar    1  LIG1       -0.0620
      3 C          -1.1766    0.0266   -2.4380 C.ar    1  LIG1       -0.0620
      4 C          -3.5869    0.7740   -3.6272 C.ar    1  LIG1       -0.0590
      5 C          -2.3480   -0.6678   -2.1361 C.ar    1  LIG1       -0.0590
      6 C         -12.0686   -3.4713    1.7861 C.ar    1  LIG1       -0.0101
      7 C         -10.3034   -5.0014    0.0760 C.ar    1  LIG1       -0.0054
      8 C          -3.5532   -0.2942   -2.7307 C.ar    1  LIG1       -0.0477
      9 C         -10.6996   -3.1551    1.6766 C.ar    1  LIG1        0.0889
     10 C          -9.8676   -3.9126    0.8413 C.ar    1  LIG1        0.0605
     11 C         -12.4856   -4.5484    1.0255 C.ar    1  LIG1        0.0681
     12 C         -11.6512   -5.2822    0.2085 C.ar    1  LIG1        0.1105
     13 C          -8.7532   -2.2896    1.8579 C.ar    1  LIG1        0.1863
     14 C         -13.6389   -6.1672    0.0235 C.ar    1  LIG1        0.3603
     15 C          -7.6848   -1.4274    2.2705 C.2     1  LIG1        0.2790
     16 C          -4.8745   -0.8515    0.1101 C.3     1  LIG1       -0.0341
     17 C          -7.0266   -0.8267   -1.2086 C.3     1  LIG1       -0.0341
     18 C          -5.6401   -0.3139    1.3177 C.3     1  LIG1        0.0148
     19 C          -7.7400   -0.2816    0.0263 C.3     1  LIG1        0.0148
     20 C          -5.5414   -0.4303   -1.2092 C.3     1  LIG1       -0.0344
     21 C          -4.8161   -1.0433   -2.4046 C.3     1  LIG1       -0.0249
     22 N          -9.9843   -2.1545    2.2958 N.ar    1  LIG1       -0.2260
     23 N          -8.6320   -3.3315    0.9820 N.ar    1  LIG1       -0.2933
     24 N         -13.7324   -5.1057    0.9077 N.ar    1  LIG1       -0.2581
     25 N          -7.0487   -0.7066    1.2512 N.am    1  LIG1       -0.2953
     26 O         -14.5528   -6.9030   -0.3270 O.2     1  LIG1       -0.2417
     27 O          -7.3696   -1.3482    3.4565 O.2     1  LIG1       -0.2683
     28 O         -12.3212   -6.3100   -0.4445 O.2     1  LIG1       -0.2602
     29 H          -0.2980    1.6347   -3.5706 H       1  LIG1        0.0622
     30 H          -2.4417    2.2993   -4.6280 H       1  LIG1        0.0623
     31 H          -0.2383   -0.2653   -1.9756 H       1  LIG1        0.0623
     32 H          -4.5214    1.0722   -4.0952 H       1  LIG1        0.0625
     33 H          -2.3122   -1.4987   -1.4363 H       1  LIG1        0.0625
     34 H         -12.7429   -2.9101    2.4212 H       1  LIG1        0.0667
     35 H          -9.6392   -5.5703   -0.5611 H       1  LIG1        0.0672
     36 H          -3.8402   -0.4897    0.1420 H       1  LIG1        0.0285
     37 H          -4.8353   -1.9471    0.1683 H       1  LIG1        0.0285
     38 H          -7.1168   -1.9206   -1.2246 H       1  LIG1        0.0285
     39 H          -7.5177   -0.4481   -2.1126 H       1  LIG1        0.0285
     40 H          -5.1770   -0.6769    2.2406 H       1  LIG1        0.0469
     41 H          -5.6039    0.7816    1.3403 H       1  LIG1        0.0469
     42 H          -7.7407    0.8149    0.0160 H       1  LIG1        0.0469
     43 H          -8.7834   -0.6059    0.0164 H       1  LIG1        0.0469
     44 H          -5.4750    0.6624   -1.2962 H       1  LIG1        0.0307
     45 H          -5.4829   -1.0468   -3.2729 H       1  LIG1        0.0319
     46 H          -4.5837   -2.0919   -2.1916 H       1  LIG1        0.0319
     47 H          -7.7828   -3.6251    0.5177 H       1  LIG1        0.1545
     48 H         -14.5651   -4.7886    1.3880 H       1  LIG1        0.1582
@<TRIPOS>BOND
     1     1     2   ar
     2     1     3   ar
     3     2     4   ar
     4     3     5   ar
     5     4     8   ar
     6     5     8   ar
     7     6     9   ar
     8     6    11   ar
     9     7    10   ar
    10     7    12   ar
    11     8    21    1
    12     9    10   ar
    13     9    22   ar
    14    10    23   ar
    15    11    12   ar
    16    11    24   ar
    17    12    28   ar
    18    13    15    1
    19    13    22   ar
    20    13    23   ar
    21    14    24   ar
    22    14    26    2
    23    14    28   ar
    24    15    25   am
    25    15    27    2
    26    16    18    1
    27    16    20    1
    28    17    19    1
    29    17    20    1
    30    18    25    1
    31    19    25    1
    32    20    21    1
    33     1    29    1
    34     2    30    1
    35     3    31    1
    36     4    32    1
    37     5    33    1
    38     6    34    1
    39     7    35    1
    40    16    36    1
    41    16    37    1
    42    17    38    1
    43    17    39    1
    44    18    40    1
    45    18    41    1
    46    19    42    1
    47    19    43    1
    48    20    44    1
    49    21    45    1
    50    21    46    1
    51    23    47    1
    52    24    48    1
