@<TRIPOS>MOLECULE
ChEBML51702
 46 49 0 0 0
SMALL
USER_CHARGES

@<TRIPOS>ATOM
      1 C         -12.3803   -4.8312    1.3458 C.ar    1  LIG1       -0.0615
      2 C         -11.5145   -5.5129    0.4928 C.ar    1  LIG1       -0.0603
      3 C          -6.5653   -0.9157   -2.8951 C.ar    1  LIG1       -0.0613
      4 C         -11.9670   -3.6689    2.0069 C.ar    1  LIG1       -0.0530
      5 C          -5.4471   -0.9660   -3.7278 C.ar    1  LIG1       -0.0543
      6 C          -3.0519   -0.5966   -4.0870 C.ar    1  LIG1       -0.0518
      7 C          -6.4410   -0.4524   -1.5887 C.ar    1  LIG1       -0.0583
      8 C         -10.2115   -5.0568    0.2735 C.ar    1  LIG1       -0.0402
      9 C          -1.8089   -0.1819   -3.6084 C.ar    1  LIG1       -0.0312
     10 C          -2.8026    0.3318   -1.4691 C.ar    1  LIG1       -0.0237
     11 C          -9.9211   -2.0760    2.2923 C.ar    1  LIG1       -0.0262
     12 C          -4.1881   -0.5527   -3.2627 C.ar    1  LIG1       -0.0179
     13 C         -10.6578   -3.1901    1.8014 C.ar    1  LIG1       -0.0022
     14 C          -4.0616   -0.0815   -1.9342 C.ar    1  LIG1       -0.0125
     15 C          -5.1978   -0.0378   -1.1099 C.ar    1  LIG1       -0.0385
     16 C          -9.8120   -3.8936    0.9411 C.ar    1  LIG1        0.0378
     17 C          -1.6844    0.2814   -2.3018 C.ar    1  LIG1        0.0752
     18 C          -8.6658   -2.1240    1.7315 C.ar    1  LIG1        0.0944
     19 C          -7.5307   -1.1862    1.9301 C.2     1  LIG1        0.2572
     20 C           0.6301    0.6070   -2.7412 C.3     1  LIG1        0.0422
     21 C          -5.1348    0.4490    0.3048 C.3     1  LIG1       -0.0116
     22 C          -5.1749   -0.6807    1.3377 C.3     1  LIG1        0.0154
     23 N          -8.6096   -3.2237    0.9177 N.ar    1  LIG1       -0.3101
     24 N          -6.3663   -1.4796    1.2308 N.am    1  LIG1       -0.3099
     25 O          -7.6646   -0.2359    2.6965 O.2     1  LIG1       -0.2704
     26 O          -0.4705    0.6854   -1.8368 O.3     1  LIG1       -0.3493
     27 H         -13.3893   -5.2050    1.4998 H       1  LIG1        0.0623
     28 H         -11.8564   -6.4136   -0.0100 H       1  LIG1        0.0623
     29 H          -7.5330   -1.2396   -3.2671 H       1  LIG1        0.0623
     30 H         -12.6524   -3.1470    2.6688 H       1  LIG1        0.0629
     31 H          -5.5679   -1.3318   -4.7454 H       1  LIG1        0.0629
     32 H          -3.1265   -0.9556   -5.1114 H       1  LIG1        0.0630
     33 H          -7.3194   -0.4175   -0.9495 H       1  LIG1        0.0626
     34 H          -9.5375   -5.5878   -0.3902 H       1  LIG1        0.0642
     35 H          -0.9412   -0.2239   -4.2615 H       1  LIG1        0.0650
     36 H          -2.6714    0.6993   -0.4536 H       1  LIG1        0.0657
     37 H         -10.2760   -1.3220    2.9824 H       1  LIG1        0.0651
     38 H           1.5372    0.9589   -2.2439 H       1  LIG1        0.0535
     39 H           0.4233    1.2201   -3.6220 H       1  LIG1        0.0535
     40 H           0.7653   -0.4331   -3.0473 H       1  LIG1        0.0535
     41 H          -5.9816    1.1281    0.4894 H       1  LIG1        0.0332
     42 H          -4.2308    1.0589    0.4597 H       1  LIG1        0.0332
     43 H          -4.3270   -1.3578    1.1936 H       1  LIG1        0.0470
     44 H          -5.1298   -0.2900    2.3596 H       1  LIG1        0.0470
     45 H          -7.8034   -3.5062    0.3774 H       1  LIG1        0.1529
     46 H          -6.3155   -2.3230    0.6631 H       1  LIG1        0.1497
@<TRIPOS>BOND
     1     1     2   ar
     2     1     4   ar
     3     2     8   ar
     4     3     5   ar
     5     3     7   ar
     6     4    13   ar
     7     5    12   ar
     8     6     9   ar
     9     6    12   ar
    10     7    15   ar
    11     8    16   ar
    12     9    17   ar
    13    10    14   ar
    14    10    17   ar
    15    11    13   ar
    16    11    18   ar
    17    12    14   ar
    18    13    16   ar
    19    14    15   ar
    20    15    21    1
    21    16    23   ar
    22    17    26    1
    23    18    19    1
    24    18    23   ar
    25    19    24   am
    26    19    25    2
    27    20    26    1
    28    21    22    1
    29    22    24    1
    30     1    27    1
    31     2    28    1
    32     3    29    1
    33     4    30    1
    34     5    31    1
    35     6    32    1
    36     7    33    1
    37     8    34    1
    38     9    35    1
    39    10    36    1
    40    11    37    1
    41    20    38    1
    42    20    39    1
    43    20    40    1
    44    21    41    1
    45    21    42    1
    46    22    43    1
    47    22    44    1
    48    23    45    1
    49    24    46    1
