@<TRIPOS>MOLECULE
ChEBML1137479
 53 56 0 0 0
SMALL
USER_CHARGES

@<TRIPOS>ATOM
      1 C          -3.6530    1.2133   -3.2083 C.ar    1  LIG1       -0.0602
      2 C          -2.3857    0.8224   -3.5990 C.ar    1  LIG1       -0.0595
      3 C         -12.9815   -2.5081    1.8867 C.ar    1  LIG1       -0.0501
      4 C         -12.5280   -4.6777    0.9358 C.ar    1  LIG1       -0.0501
      5 C          -4.2548    0.6234   -2.1126 C.ar    1  LIG1       -0.0382
      6 C          -1.7136   -0.1605   -2.8958 C.ar    1  LIG1       -0.0299
      7 C         -14.3318   -2.7892    1.8766 C.ar    1  LIG1       -0.0308
      8 C         -13.8790   -4.9556    0.9334 C.ar    1  LIG1       -0.0308
      9 C         -10.0163   -1.9652    1.8826 C.ar    1  LIG1       -0.0059
     10 C         -12.0709   -3.4530    1.4183 C.ar    1  LIG1        0.0020
     11 C          -3.5887   -0.3670   -1.4055 C.ar    1  LIG1        0.0594
     12 C         -14.7839   -4.0121    1.4003 C.ar    1  LIG1        0.0847
     13 C          -2.3094   -0.7563   -1.7965 C.ar    1  LIG1        0.0957
     14 C         -10.6171   -3.1533    1.4274 C.ar    1  LIG1        0.0905
     15 C          -8.6594   -2.1480    1.6954 C.ar    1  LIG1        0.1123
     16 C          -7.5890   -1.1895    2.0145 C.2     1  LIG1        0.2614
     17 C          -4.5882    0.1136    0.6100 C.3     1  LIG1        0.0275
     18 C          -5.4309   -1.5985   -0.7874 C.3     1  LIG1        0.0275
     19 C          -5.2439   -0.4777    1.8620 C.3     1  LIG1        0.0303
     20 C          -6.1422   -2.3028    0.3724 C.3     1  LIG1        0.0303
     21 C          -0.3817   -1.8949   -1.7406 C.3     1  LIG1        0.0423
     22 C         -16.2618   -5.6016    0.8522 C.3     1  LIG1        0.5271
     23 N          -9.6559   -3.9507    1.0115 N.ar    1  LIG1       -0.1834
     24 N          -8.5080   -3.3919    1.1500 N.ar    1  LIG1       -0.2326
     25 N          -4.1982   -0.9700   -0.2992 N.pl3   1  LIG1       -0.3255
     26 N          -6.3764   -1.3178    1.4405 N.am    1  LIG1       -0.2935
     27 O          -7.7987   -0.2817    2.7963 O.2     1  LIG1       -0.2701
     28 O          -1.6493   -1.7228   -1.1038 O.3     1  LIG1       -0.3473
     29 O         -16.1147   -4.2865    1.3915 O.3     1  LIG1       -0.2541
     30 F         -15.5718   -6.5152    1.6562 F       1  LIG1       -0.1435
     31 F         -17.6183   -5.9424    0.8176 F       1  LIG1       -0.1435
     32 F         -15.7395   -5.6348   -0.4452 F       1  LIG1       -0.1435
     33 H          -4.1739    1.9816   -3.7602 H       1  LIG1        0.0623
     34 H          -1.9192    1.2864   -4.4555 H       1  LIG1        0.0623
     35 H         -12.6302   -1.5565    2.2578 H       1  LIG1        0.0631
     36 H         -11.8248   -5.4102    0.5679 H       1  LIG1        0.0631
     37 H          -5.2446    0.9309   -1.8093 H       1  LIG1        0.0643
     38 H          -0.7238   -0.4634   -3.2038 H       1  LIG1        0.0651
     39 H         -15.0379   -2.0573    2.2399 H       1  LIG1        0.0650
     40 H         -14.2335   -5.9064    0.5636 H       1  LIG1        0.0650
     41 H         -10.5102   -1.0961    2.2914 H       1  LIG1        0.0668
     42 H          -3.7039    0.6823    0.8974 H       1  LIG1        0.0485
     43 H          -5.2956    0.7728    0.1067 H       1  LIG1        0.0485
     44 H          -6.0868   -0.8348   -1.2054 H       1  LIG1        0.0485
     45 H          -5.1855   -2.3279   -1.5593 H       1  LIG1        0.0485
     46 H          -4.5187   -1.0844    2.4044 H       1  LIG1        0.0486
     47 H          -5.6027    0.3272    2.5034 H       1  LIG1        0.0486
     48 H          -5.5166   -3.1117    0.7498 H       1  LIG1        0.0486
     49 H          -7.0952   -2.7050    0.0287 H       1  LIG1        0.0486
     50 H           0.1692   -0.9548   -1.7134 H       1  LIG1        0.0535
     51 H           0.1863   -2.6642   -1.2175 H       1  LIG1        0.0535
     52 H          -0.5339   -2.1970   -2.7768 H       1  LIG1        0.0535
     53 H          -7.6596   -3.7936    0.9057 H       1  LIG1        0.1757
@<TRIPOS>BOND
     1     1     2   ar
     2     1     5   ar
     3     2     6   ar
     4     3     7   ar
     5     3    10   ar
     6     4     8   ar
     7     4    10   ar
     8     5    11   ar
     9     6    13   ar
    10     7    12   ar
    11     8    12   ar
    12     9    14   ar
    13     9    15   ar
    14    10    14    1
    15    11    13   ar
    16    11    25    1
    17    12    29    1
    18    13    28    1
    19    14    23   ar
    20    15    16    1
    21    15    24   ar
    22    16    26   am
    23    16    27    2
    24    17    19    1
    25    17    25    1
    26    18    20    1
    27    18    25    1
    28    19    26    1
    29    20    26    1
    30    21    28    1
    31    22    29    1
    32    22    30    1
    33    22    31    1
    34    22    32    1
    35    23    24   ar
    36     1    33    1
    37     2    34    1
    38     3    35    1
    39     4    36    1
    40     5    37    1
    41     6    38    1
    42     7    39    1
    43     8    40    1
    44     9    41    1
    45    17    42    1
    46    17    43    1
    47    18    44    1
    48    18    45    1
    49    19    46    1
    50    19    47    1
    51    20    48    1
    52    20    49    1
    53    21    50    1
    54    21    51    1
    55    21    52    1
    56    24    53    1
