@<TRIPOS>MOLECULE
ChEBML776459
 35 37 0 0 0
SMALL
USER_CHARGES

@<TRIPOS>ATOM
      1 C         -10.0542   -2.4709    2.8252 C.ar    1  LIG1       -0.0562
      2 C          -8.8137   -2.0918    2.3075 C.ar    1  LIG1       -0.0315
      3 C          -2.1055    0.8582   -3.4271 C.ar    1  LIG1       -0.0253
      4 C          -9.2060   -3.3946    0.2899 C.ar    1  LIG1       -0.0283
      5 C          -3.2999    1.2983   -2.8938 C.ar    1  LIG1        0.0314
      6 C          -1.6377   -0.3424   -2.9333 C.ar    1  LIG1        0.0314
      7 C         -10.8592   -3.2979    2.0601 C.ar    1  LIG1       -0.0446
      8 C         -10.4392   -3.7554    0.8055 C.ar    1  LIG1       -0.0422
      9 C          -8.3928   -2.5501    1.0489 C.ar    1  LIG1        0.0753
     10 C          -3.4327   -0.5314   -1.5515 C.ar    1  LIG1        0.1871
     11 C         -12.1984   -3.8638    2.4127 C.3     1  LIG1       -0.0273
     12 C         -11.4581   -4.6706    0.2035 C.3     1  LIG1       -0.0272
     13 C         -12.7014   -4.3183    1.0342 C.3     1  LIG1       -0.0451
     14 C          -6.6837   -0.8979    0.9785 C.3     1  LIG1        0.0628
     15 C          -5.7305   -0.3441   -0.0688 C.3     1  LIG1        0.0251
     16 N          -3.9927    0.6263   -1.9512 N.ar    1  LIG1       -0.2311
     17 N          -2.2779   -1.0663   -1.9918 N.ar    1  LIG1       -0.2311
     18 O          -7.1753   -2.1720    0.5676 O.3     1  LIG1       -0.3452
     19 S          -4.3033   -1.4445   -0.3161 S.3     1  LIG1       -0.0838
     20 H         -10.3722   -2.1241    3.8026 H       1  LIG1        0.0626
     21 H          -8.1689   -1.4393    2.8908 H       1  LIG1        0.0650
     22 H          -1.5715    1.4183   -4.1826 H       1  LIG1        0.0655
     23 H          -8.8794   -3.7599   -0.6785 H       1  LIG1        0.0653
     24 H          -3.7454    2.2323   -3.2187 H       1  LIG1        0.0841
     25 H          -0.7074   -0.7690   -3.2930 H       1  LIG1        0.0841
     26 H         -12.0810   -4.7147    3.0915 H       1  LIG1        0.0316
     27 H         -12.8658   -3.1191    2.8545 H       1  LIG1        0.0316
     28 H         -11.6210   -4.4759   -0.8600 H       1  LIG1        0.0316
     29 H         -11.1635   -5.7142    0.3549 H       1  LIG1        0.0316
     30 H         -13.4079   -5.1516    1.1019 H       1  LIG1        0.0273
     31 H         -13.2306   -3.4840    0.5526 H       1  LIG1        0.0273
     32 H          -7.5291   -0.2263    1.1614 H       1  LIG1        0.0581
     33 H          -6.1466   -1.0380    1.9223 H       1  LIG1        0.0581
     34 H          -5.3479    0.6340    0.2381 H       1  LIG1        0.0409
     35 H          -6.2455   -0.2346   -1.0278 H       1  LIG1        0.0409
@<TRIPOS>BOND
     1     1     2   ar
     2     1     7   ar
     3     2     9   ar
     4     3     5   ar
     5     3     6   ar
     6     4     8   ar
     7     4     9   ar
     8     5    16   ar
     9     6    17   ar
    10     7     8   ar
    11     7    11    1
    12     8    12    1
    13     9    18    1
    14    10    16   ar
    15    10    17   ar
    16    10    19    1
    17    11    13    1
    18    12    13    1
    19    14    15    1
    20    14    18    1
    21    15    19    1
    22     1    20    1
    23     2    21    1
    24     3    22    1
    25     4    23    1
    26     5    24    1
    27     6    25    1
    28    11    26    1
    29    11    27    1
    30    12    28    1
    31    12    29    1
    32    13    30    1
    33    13    31    1
    34    14    32    1
    35    14    33    1
    36    15    34    1
    37    15    35    1
