@<TRIPOS>MOLECULE
ChEBML53270
 55 58 0 0 0
SMALL
USER_CHARGES

@<TRIPOS>ATOM
      1 C          -2.3333    0.9979   -3.4621 C.ar    1  LIG1       -0.0418
      2 C         -11.6976   -5.5023    0.6746 C.ar    1  LIG1       -0.0574
      3 C         -10.3782   -5.1605    0.4806 C.ar    1  LIG1       -0.0399
      4 C          -1.7885   -0.2123   -3.0539 C.ar    1  LIG1       -0.0360
      5 C         -12.0813   -3.5115    1.9443 C.ar    1  LIG1       -0.0501
      6 C          -9.9758   -2.0271    2.1798 C.ar    1  LIG1       -0.0262
      7 C          -3.4891    1.4564   -2.8636 C.ar    1  LIG1        0.0292
      8 C         -10.7427   -3.1410    1.7608 C.ar    1  LIG1       -0.0019
      9 C         -12.5432   -4.6766    1.4052 C.ar    1  LIG1       -0.0504
     10 C          -9.8836   -3.9760    1.0200 C.ar    1  LIG1        0.0378
     11 C          -2.4330   -0.9222   -2.0494 C.ar    1  LIG1        0.0672
     12 C          -8.7127   -2.1933    1.7074 C.ar    1  LIG1        0.0947
     13 C          -3.6026   -0.3977   -1.4935 C.ar    1  LIG1        0.1412
     14 C          -7.5948   -1.2609    1.9164 C.2     1  LIG1        0.2599
     15 C          -4.4684   -0.1580    0.6185 C.3     1  LIG1        0.0288
     16 C          -5.5885   -1.4459   -1.0188 C.3     1  LIG1        0.0288
     17 C          -5.1745   -0.8718    1.7757 C.3     1  LIG1        0.0303
     18 C          -6.3684   -2.2448    0.0304 C.3     1  LIG1        0.0303
     19 C         -13.9836   -5.0720    1.6047 C.3     1  LIG1       -0.0397
     20 C           0.5215   -2.1704   -1.7104 C.3     1  LIG1       -0.0470
     21 C          -0.7911   -4.2661   -2.0679 C.3     1  LIG1       -0.0470
     22 C          -0.7727   -2.7514   -2.2836 C.3     1  LIG1        0.0142
     23 N          -4.0828    0.7620   -1.9102 N.ar    1  LIG1       -0.2394
     24 N          -8.6475   -3.3747    0.9944 N.ar    1  LIG1       -0.3101
     25 N          -4.2649   -1.0991   -0.4887 N.pl3   1  LIG1       -0.3112
     26 N          -6.4286   -1.4510    1.2682 N.am    1  LIG1       -0.2936
     27 N          -1.9218   -2.1474   -1.6047 N.pl3   1  LIG1       -0.3393
     28 O          -7.7227   -0.3181    2.6745 O.2     1  LIG1       -0.2701
     29 H          -1.8567    1.5750   -4.2407 H       1  LIG1        0.0639
     30 H         -12.0792   -6.4214    0.2549 H       1  LIG1        0.0626
     31 H          -9.7287   -5.8093   -0.0882 H       1  LIG1        0.0643
     32 H          -0.8846   -0.5922   -3.5066 H       1  LIG1        0.0644
     33 H         -12.7459   -2.8764    2.5114 H       1  LIG1        0.0632
     34 H         -10.3310   -1.1947    2.7691 H       1  LIG1        0.0651
     35 H          -3.9143    2.3977   -3.1794 H       1  LIG1        0.0840
     36 H          -3.5031    0.2171    0.9583 H       1  LIG1        0.0485
     37 H          -5.0821    0.6760    0.2779 H       1  LIG1        0.0485
     38 H          -6.1338   -0.5333   -1.2594 H       1  LIG1        0.0485
     39 H          -5.4722   -2.0474   -1.9203 H       1  LIG1        0.0485
     40 H          -4.5344   -1.6644    2.1633 H       1  LIG1        0.0486
     41 H          -5.3947   -0.1567    2.5684 H       1  LIG1        0.0486
     42 H          -5.8606   -3.1896    0.2246 H       1  LIG1        0.0486
     43 H          -7.3784   -2.4378   -0.3313 H       1  LIG1        0.0486
     44 H         -14.5872   -4.6676    0.7921 H       1  LIG1        0.0280
     45 H         -14.0645   -6.1590    1.6111 H       1  LIG1        0.0280
     46 H         -14.3410   -4.6755    2.5549 H       1  LIG1        0.0280
     47 H           1.3765   -2.6199   -2.2155 H       1  LIG1        0.0249
     48 H           0.5347   -1.0914   -1.8641 H       1  LIG1        0.0249
     49 H           0.5753   -2.3861   -0.6434 H       1  LIG1        0.0249
     50 H          -0.7374   -4.4818   -1.0008 H       1  LIG1        0.0249
     51 H          -1.7131   -4.6800   -2.4762 H       1  LIG1        0.0249
     52 H           0.0638   -4.7154   -2.5730 H       1  LIG1        0.0249
     53 H          -0.8264   -2.5358   -3.3506 H       1  LIG1        0.0497
     54 H          -7.8587   -3.7239    0.5508 H       1  LIG1        0.1529
     55 H          -2.3285   -2.5964   -0.8470 H       1  LIG1        0.1469
@<TRIPOS>BOND
     1     1     4   ar
     2     1     7   ar
     3     2     3   ar
     4     2     9   ar
     5     3    10   ar
     6     4    11   ar
     7     5     8   ar
     8     5     9   ar
     9     6     8   ar
    10     6    12   ar
    11     7    23   ar
    12     8    10   ar
    13     9    19    1
    14    10    24   ar
    15    11    13   ar
    16    11    27    1
    17    12    14    1
    18    12    24   ar
    19    13    23   ar
    20    13    25    1
    21    14    26   am
    22    14    28    2
    23    15    17    1
    24    15    25    1
    25    16    18    1
    26    16    25    1
    27    17    26    1
    28    18    26    1
    29    20    22    1
    30    21    22    1
    31    22    27    1
    32     1    29    1
    33     2    30    1
    34     3    31    1
    35     4    32    1
    36     5    33    1
    37     6    34    1
    38     7    35    1
    39    15    36    1
    40    15    37    1
    41    16    38    1
    42    16    39    1
    43    17    40    1
    44    17    41    1
    45    18    42    1
    46    18    43    1
    47    19    44    1
    48    19    45    1
    49    19    46    1
    50    20    47    1
    51    20    48    1
    52    20    49    1
    53    21    50    1
    54    21    51    1
    55    21    52    1
    56    22    53    1
    57    24    54    1
    58    27    55    1
