@<TRIPOS>MOLECULE
ChEBML212377
 36 38 0 0 0
SMALL
USER_CHARGES

@<TRIPOS>ATOM
      1 C         -12.0687   -3.4022    1.4296 C.ar    1  LIG1       -0.0169
      2 C         -10.0102   -1.8399    1.7844 C.ar    1  LIG1       -0.0260
      3 C         -11.4321   -5.6853    0.9010 C.ar    1  LIG1        0.0115
      4 C         -10.7067   -3.0494    1.5072 C.ar    1  LIG1        0.0037
      5 C          -9.7432   -4.0338    1.2774 C.ar    1  LIG1        0.0743
      6 C         -12.4153   -4.7237    1.1256 C.ar    1  LIG1        0.1264
      7 C         -10.0749   -5.3587    0.9724 C.ar    1  LIG1        0.1475
      8 C          -8.6624   -2.1085    1.7191 C.ar    1  LIG1        0.0948
      9 C          -7.5655   -1.2085    1.9249 C.2     1  LIG1        0.2602
     10 C          -6.4024   -2.1580   -0.0999 C.3     1  LIG1        0.0539
     11 C          -5.0603   -1.1558    1.7027 C.3     1  LIG1        0.0539
     12 C          -5.6922   -1.3022   -1.1384 C.3     1  LIG1       -0.0183
     13 C          -4.3183   -0.2875    0.6959 C.3     1  LIG1       -0.0183
     14 C          -3.5022   -0.2213   -1.6637 C.3     1  LIG1       -0.0453
     15 N          -8.5113   -3.4343    1.4124 N.ar    1  LIG1       -0.3077
     16 N          -6.3953   -1.4937    1.2098 N.am    1  LIG1       -0.2863
     17 N          -4.2955   -0.9897   -0.6444 N.4     1  LIG1        0.2462
     18 O          -7.6778   -0.2523    2.6901 O.2     1  LIG1       -0.2701
     19 F         -13.7085   -5.0672    1.0507 F       1  LIG1       -0.2068
     20 F          -9.1361   -6.2879    0.7551 F       1  LIG1       -0.2047
     21 H         -12.8456   -2.6630    1.6015 H       1  LIG1        0.0660
     22 H         -10.4517   -0.8780    2.0080 H       1  LIG1        0.0651
     23 H         -11.7238   -6.7056    0.6668 H       1  LIG1        0.0685
     24 H          -7.4188   -2.3707   -0.4398 H       1  LIG1        0.0525
     25 H          -5.8934   -3.1218    0.0217 H       1  LIG1        0.0525
     26 H          -4.5247   -2.0974    1.8727 H       1  LIG1        0.0525
     27 H          -5.1205   -0.6355    2.6637 H       1  LIG1        0.0525
     28 H          -5.5942   -1.8388   -2.0875 H       1  LIG1        0.0831
     29 H          -6.2044   -0.3471   -1.3003 H       1  LIG1        0.0831
     30 H          -4.8131    0.6793    0.5501 H       1  LIG1        0.0831
     31 H          -3.2799   -0.1310    1.0051 H       1  LIG1        0.0831
     32 H          -4.0003    0.7371   -1.8212 H       1  LIG1        0.0777
     33 H          -2.4954   -0.0799   -1.2660 H       1  LIG1        0.0777
     34 H          -3.4819   -0.8089   -2.5835 H       1  LIG1        0.0777
     35 H          -7.6252   -3.9076    1.3004 H       1  LIG1        0.1530
     36 H          -3.8095   -1.8873   -0.5114 H       1  LIG1        0.2001
@<TRIPOS>BOND
     1     1     4   ar
     2     1     6   ar
     3     2     4   ar
     4     2     8   ar
     5     3     6   ar
     6     3     7   ar
     7     4     5   ar
     8     5     7   ar
     9     5    15   ar
    10     6    19    1
    11     7    20    1
    12     8     9    1
    13     8    15   ar
    14     9    16   am
    15     9    18    2
    16    10    12    1
    17    10    16    1
    18    11    13    1
    19    11    16    1
    20    12    17    1
    21    13    17    1
    22    14    17    1
    23     1    21    1
    24     2    22    1
    25     3    23    1
    26    10    24    1
    27    10    25    1
    28    11    26    1
    29    11    27    1
    30    12    28    1
    31    12    29    1
    32    13    30    1
    33    13    31    1
    34    14    32    1
    35    14    33    1
    36    14    34    1
    37    15    35    1
    38    17    36    1
