@<TRIPOS>MOLECULE
ChEBML112700
 37 39 0 0 0
SMALL
USER_CHARGES

@<TRIPOS>ATOM
      1 C         -12.3643   -5.3337    0.6791 C.ar    1  LIG1       -0.0466
      2 C         -11.1264   -4.8578    0.2374 C.ar    1  LIG1       -0.0343
      3 C          -2.1835   -0.5955   -2.3934 C.ar    1  LIG1       -0.0218
      4 C          -2.1100    0.4061   -3.3907 C.ar    1  LIG1       -0.0212
      5 C         -12.2331   -3.9456    2.6627 C.ar    1  LIG1       -0.0326
      6 C         -12.9086   -4.8822    1.8763 C.ar    1  LIG1        0.0482
      7 C         -10.4227   -3.9109    1.0129 C.ar    1  LIG1        0.0799
      8 C         -10.9902   -3.4717    2.2129 C.ar    1  LIG1        0.0416
      9 C          -3.2489   -0.2586   -1.5914 C.ar    1  LIG1        0.1551
     10 C          -3.1360    1.2835   -3.1271 C.ar    1  LIG1        0.1250
     11 C          -8.8398   -2.5117    1.6479 C.ar    1  LIG1        0.1645
     12 C         -14.1979   -5.3910    2.3187 C.2     1  LIG1        0.2925
     13 C          -3.8213   -0.9152   -0.3890 C.2     1  LIG1        0.3171
     14 C          -6.6167   -1.6969    0.7997 C.2     1  LIG1        0.2442
     15 C         -15.5161   -5.8912    4.2428 C.3     1  LIG1        0.0456
     16 C          -5.5249   -0.7448    1.2372 C.3     1  LIG1        0.1337
     17 N          -9.1914   -3.3519    0.7029 N.ar    1  LIG1       -0.2252
     18 N          -7.6965   -1.7606    1.7154 N.am    1  LIG1       -0.2622
     19 O         -15.1011   -5.7640    1.5588 O.2     1  LIG1       -0.2606
     20 O          -3.3717   -1.9447    0.0899 O.2     1  LIG1       -0.2582
     21 O          -6.5123   -2.3243   -0.2499 O.2     1  LIG1       -0.2745
     22 O          -3.8351    0.8854   -2.0320 O.2     1  LIG1       -0.2966
     23 O         -14.2900   -5.4080    3.6835 O.3     1  LIG1       -0.3155
     24 O          -4.8932   -0.2171    0.0891 O.3     1  LIG1       -0.3007
     25 S          -9.9317   -2.3286    2.9518 S.2     1  LIG1       -0.0519
     26 BR         -3.5355    2.8350   -4.1400 Br      1  LIG1       -0.0225
     27 H         -12.8961   -6.0618    0.0712 H       1  LIG1        0.0632
     28 H         -10.7097   -5.2176   -0.6992 H       1  LIG1        0.0646
     29 H          -1.5372   -1.4540   -2.2777 H       1  LIG1        0.0654
     30 H          -1.3945    0.4717   -4.1984 H       1  LIG1        0.0657
     31 H         -12.6560   -3.5919    3.5991 H       1  LIG1        0.0644
     32 H         -15.4601   -5.8529    5.3334 H       1  LIG1        0.0536
     33 H         -15.6885   -6.9185    3.9120 H       1  LIG1        0.0536
     34 H         -16.3374   -5.2574    3.8999 H       1  LIG1        0.0536
     35 H          -5.9512    0.0698    1.8305 H       1  LIG1        0.0675
     36 H          -4.7819   -1.2652    1.8490 H       1  LIG1        0.0675
     37 H          -7.6087   -1.1540    2.5532 H       1  LIG1        0.1578
@<TRIPOS>BOND
     1     1     2   ar
     2     1     6   ar
     3     2     7   ar
     4     3     4   ar
     5     3     9   ar
     6     4    10   ar
     7     5     6   ar
     8     5     8   ar
     9     6    12    1
    10     7     8   ar
    11     7    17   ar
    12     8    25   ar
    13     9    13    1
    14     9    22   ar
    15    10    22   ar
    16    10    26    1
    17    11    17   ar
    18    11    18    1
    19    11    25   ar
    20    12    19    2
    21    12    23    1
    22    13    20    2
    23    13    24    1
    24    14    16    1
    25    14    18   am
    26    14    21    2
    27    15    23    1
    28    16    24    1
    29     1    27    1
    30     2    28    1
    31     3    29    1
    32     4    30    1
    33     5    31    1
    34    15    32    1
    35    15    33    1
    36    15    34    1
    37    16    35    1
    38    16    36    1
    39    18    37    1
