@<TRIPOS>MOLECULE
ChEBML1029338
 31 33 0 0 0
SMALL
USER_CHARGES

@<TRIPOS>ATOM
      1 C          -5.3079   -0.7840    1.5039 C.ar    1  LIG1       -0.0585
      2 C          -5.5046    0.3216    2.3238 C.ar    1  LIG1       -0.0438
      3 C         -10.3749   -5.1374    0.3180 C.ar    1  LIG1       -0.0367
      4 C         -11.7135   -5.4573    0.5685 C.ar    1  LIG1       -0.0387
      5 C          -6.3579   -1.6652    1.2708 C.ar    1  LIG1       -0.0328
      6 C         -11.9912   -3.5010    1.9910 C.ar    1  LIG1       -0.0129
      7 C          -6.7600    0.4998    2.8822 C.ar    1  LIG1        0.0277
      8 C         -10.6483   -3.1646    1.7505 C.ar    1  LIG1        0.0885
      9 C          -9.8806   -3.9837    0.9274 C.ar    1  LIG1        0.0577
     10 C         -12.5090   -4.6550    1.3897 C.ar    1  LIG1        0.0347
     11 C          -7.5751   -1.3983    1.8766 C.ar    1  LIG1        0.1033
     12 C          -8.7133   -2.2639    1.6855 C.ar    1  LIG1        0.1484
     13 C         -14.5414   -6.1098    1.1117 C.2     1  LIG1        0.2128
     14 C         -15.9700   -6.1325    1.5943 C.3     1  LIG1        0.0130
     15 N          -7.8041   -0.3346    2.6790 N.ar    1  LIG1       -0.2532
     16 N          -9.9064   -2.1015    2.2119 N.ar    1  LIG1       -0.2291
     17 N          -8.6477   -3.3837    0.9037 N.ar    1  LIG1       -0.2960
     18 N         -13.8414   -5.0064    1.6158 N.am    1  LIG1       -0.2856
     19 O         -14.1148   -6.9894    0.3707 O.2     1  LIG1       -0.2776
     20 H          -4.3383   -0.9585    1.0474 H       1  LIG1        0.0624
     21 H          -4.7009    1.0223    2.5188 H       1  LIG1        0.0639
     22 H          -9.7557   -5.7586   -0.3189 H       1  LIG1        0.0644
     23 H         -12.1316   -6.3508    0.1089 H       1  LIG1        0.0643
     24 H          -6.2135   -2.5306    0.6319 H       1  LIG1        0.0647
     25 H         -12.6085   -2.8759    2.6297 H       1  LIG1        0.0666
     26 H          -6.9655    1.3473    3.5277 H       1  LIG1        0.0840
     27 H         -16.6060   -5.5831    0.8943 H       1  LIG1        0.0328
     28 H         -16.0359   -5.6600    2.5785 H       1  LIG1        0.0328
     29 H         -16.3207   -7.1657    1.6744 H       1  LIG1        0.0328
     30 H          -7.8378   -3.7155    0.3964 H       1  LIG1        0.1544
     31 H         -14.3788   -4.3820    2.2275 H       1  LIG1        0.1556
@<TRIPOS>BOND
     1     1     2   ar
     2     1     5   ar
     3     2     7   ar
     4     3     4   ar
     5     3     9   ar
     6     4    10   ar
     7     5    11   ar
     8     6     8   ar
     9     6    10   ar
    10     7    15   ar
    11     8     9   ar
    12     8    16   ar
    13     9    17   ar
    14    10    18    1
    15    11    12    1
    16    11    15   ar
    17    12    16   ar
    18    12    17   ar
    19    13    14    1
    20    13    18   am
    21    13    19    2
    22     1    20    1
    23     2    21    1
    24     3    22    1
    25     4    23    1
    26     5    24    1
    27     6    25    1
    28     7    26    1
    29    14    27    1
    30    14    28    1
    31    14    29    1
    32    17    30    1
    33    18    31    1
