@<TRIPOS>MOLECULE
ChEBML330121
 47 50 0 0 0
SMALL
USER_CHARGES

@<TRIPOS>ATOM
      1 C         -11.6774   -5.5057    0.6776 C.ar    1  LIG1       -0.0381
      2 C         -10.3384   -5.1556    0.4797 C.ar    1  LIG1       -0.0288
      3 C         -16.4609   -7.2715   -0.7130 C.ar    1  LIG1       -0.0252
      4 C         -12.0922   -3.4813    1.9687 C.ar    1  LIG1       -0.0307
      5 C          -9.9352   -2.0131    2.1707 C.ar    1  LIG1       -0.0253
      6 C         -15.1614   -7.0178   -1.1019 C.ar    1  LIG1        0.0322
      7 C         -16.8357   -6.7362    0.5024 C.ar    1  LIG1        0.0322
      8 C         -10.7494   -3.1094    1.7819 C.ar    1  LIG1        0.0094
      9 C         -12.5406   -4.6853    1.4083 C.ar    1  LIG1        0.0334
     10 C          -9.9218   -3.9533    1.0483 C.ar    1  LIG1        0.0890
     11 C          -8.6833   -2.2577    1.6555 C.ar    1  LIG1        0.0653
     12 C         -14.7719   -5.8301    0.7967 C.ar    1  LIG1        0.2179
     13 C          -2.8879   -1.9054    1.2810 C.3     1  LIG1       -0.0084
     14 C          -2.8476   -1.0661    0.0205 C.3     1  LIG1       -0.0061
     15 C          -4.1971   -1.5036    1.9331 C.3     1  LIG1       -0.0339
     16 C          -4.2754   -1.1718   -0.4955 C.3     1  LIG1       -0.0261
     17 C          -4.6752   -0.0338   -1.4165 C.3     1  LIG1       -0.0225
     18 C          -7.3885   -1.4993    1.7050 C.3     1  LIG1        0.0338
     19 C          -6.3484   -1.9890    0.7025 C.3     1  LIG1       -0.0279
     20 N         -14.2866   -6.2982   -0.3690 N.ar    1  LIG1       -0.2234
     21 N         -16.0138   -6.0079    1.2861 N.ar    1  LIG1       -0.2234
     22 N         -13.8876   -5.0739    1.5868 N.pl3   1  LIG1       -0.2836
     23 N          -5.1141   -1.1428    0.7758 N.4     1  LIG1        0.2482
     24 O          -8.6647   -3.4325    0.9731 O.2     1  LIG1       -0.3139
     25 H         -12.0427   -6.4376    0.2501 H       1  LIG1        0.0643
     26 H          -9.6635   -5.7866   -0.0858 H       1  LIG1        0.0651
     27 H         -17.1417   -7.8533   -1.3198 H       1  LIG1        0.0655
     28 H         -12.7661   -2.8459    2.5365 H       1  LIG1        0.0650
     29 H         -10.2282   -1.1519    2.7552 H       1  LIG1        0.0654
     30 H         -14.7761   -7.3970   -2.0425 H       1  LIG1        0.0841
     31 H         -17.8373   -6.8835    0.8919 H       1  LIG1        0.0841
     32 H          -2.9036   -2.9723    1.0276 H       1  LIG1        0.0323
     33 H          -2.0289   -1.7255    1.9335 H       1  LIG1        0.0323
     34 H          -2.5849   -0.0289    0.2621 H       1  LIG1        0.0326
     35 H          -2.1186   -1.4420   -0.7037 H       1  LIG1        0.0326
     36 H          -4.6435   -2.3042    2.5301 H       1  LIG1        0.0815
     37 H          -4.0905   -0.5974    2.5382 H       1  LIG1        0.0815
     38 H          -4.4371   -2.1455   -0.9743 H       1  LIG1        0.0849
     39 H          -4.5084    0.9273   -0.9255 H       1  LIG1        0.0287
     40 H          -5.7323   -0.1127   -1.6790 H       1  LIG1        0.0287
     41 H          -4.0843   -0.0641   -2.3345 H       1  LIG1        0.0287
     42 H          -7.5959   -0.4408    1.4988 H       1  LIG1        0.0392
     43 H          -6.9697   -1.5259    2.7194 H       1  LIG1        0.0392
     44 H          -6.7231   -1.8979   -0.3213 H       1  LIG1        0.0819
     45 H          -6.0373   -3.0222    0.8839 H       1  LIG1        0.0819
     46 H         -14.2925   -4.7399    2.4550 H       1  LIG1        0.1559
     47 H          -5.4227   -0.1737    0.9342 H       1  LIG1        0.2006
@<TRIPOS>BOND
     1     1     2   ar
     2     1     9   ar
     3     2    10   ar
     4     3     6   ar
     5     3     7   ar
     6     4     8   ar
     7     4     9   ar
     8     5     8   ar
     9     5    11   ar
    10     6    20   ar
    11     7    21   ar
    12     8    10   ar
    13     9    22    1
    14    10    24   ar
    15    11    18    1
    16    11    24   ar
    17    12    20   ar
    18    12    21   ar
    19    12    22    1
    20    13    14    1
    21    13    15    1
    22    14    16    1
    23    15    23    1
    24    16    17    1
    25    16    23    1
    26    18    19    1
    27    19    23    1
    28     1    25    1
    29     2    26    1
    30     3    27    1
    31     4    28    1
    32     5    29    1
    33     6    30    1
    34     7    31    1
    35    13    32    1
    36    13    33    1
    37    14    34    1
    38    14    35    1
    39    15    36    1
    40    15    37    1
    41    16    38    1
    42    17    39    1
    43    17    40    1
    44    17    41    1
    45    18    42    1
    46    18    43    1
    47    19    44    1
    48    19    45    1
    49    22    46    1
    50    23    47    1
