@<TRIPOS>MOLECULE
ChEBML885408
 41 43 0 0 0
SMALL
USER_CHARGES

@<TRIPOS>ATOM
      1 C         -12.5075   -5.1607    0.7752 C.ar    1  LIG1       -0.0616
      2 C         -11.3704   -5.6320    0.1257 C.ar    1  LIG1       -0.0616
      3 C         -12.4444   -3.9918    1.5342 C.ar    1  LIG1       -0.0544
      4 C         -10.1659   -4.9363    0.2328 C.ar    1  LIG1       -0.0543
      5 C         -11.1587   -2.1004    2.4128 C.ar    1  LIG1       -0.0536
      6 C          -9.9542   -1.4045    2.5198 C.ar    1  LIG1       -0.0504
      7 C          -3.2543   -1.2119   -2.3630 C.ar    1  LIG1       -0.0390
      8 C          -3.8994    0.8335   -1.2507 C.ar    1  LIG1       -0.0390
      9 C          -2.5675   -0.4719   -3.3255 C.ar    1  LIG1       -0.0377
     10 C          -3.2125    1.5735   -2.2132 C.ar    1  LIG1       -0.0377
     11 C          -8.8801   -3.0448    1.1114 C.ar    1  LIG1       -0.0432
     12 C         -11.2405   -3.2787    1.6530 C.ar    1  LIG1       -0.0183
     13 C         -10.0841   -3.7580    0.9926 C.ar    1  LIG1       -0.0176
     14 C          -8.8171   -1.8759    1.8704 C.ar    1  LIG1        0.0225
     15 C          -3.9203   -0.5591   -1.3256 C.ar    1  LIG1        0.0299
     16 C          -2.5466    0.9207   -3.2505 C.ar    1  LIG1        0.0541
     17 C          -6.3528   -1.6854    1.2724 C.2     1  LIG1       -0.0001
     18 C          -5.7137   -0.9505    0.3547 C.2     1  LIG1       -0.0033
     19 C          -7.5615   -1.1513    1.9849 C.2     1  LIG1        0.1866
     20 N          -2.9175    2.0921   -5.6160 N.3     1  LIG1       -0.3036
     21 N          -4.6116   -1.3033   -0.3569 N.pl3   1  LIG1       -0.3209
     22 O          -7.4786   -0.1254    2.6776 O.2     1  LIG1       -0.2891
     23 O          -1.3277    3.1340   -3.8746 O.2     1  LIG1       -0.4766
     24 O          -0.6550    1.0034   -5.0392 O.2     1  LIG1       -0.4766
     25 S          -1.6877    1.8479   -4.4551 S.O2    1  LIG1       -0.1706
     26 H         -13.4446   -5.7038    0.6927 H       1  LIG1        0.0623
     27 H         -11.4203   -6.5418   -0.4654 H       1  LIG1        0.0623
     28 H         -13.3454   -3.6428    2.0345 H       1  LIG1        0.0629
     29 H          -9.2902   -5.3226   -0.2847 H       1  LIG1        0.0629
     30 H         -12.0354   -1.7135    2.9280 H       1  LIG1        0.0629
     31 H          -9.9170   -0.4949    3.1141 H       1  LIG1        0.0630
     32 H          -3.2643   -2.2967   -2.4312 H       1  LIG1        0.0643
     33 H          -4.4142    1.3522   -0.4458 H       1  LIG1        0.0643
     34 H          -2.0523   -0.9909   -4.1293 H       1  LIG1        0.0643
     35 H          -3.2031    2.6582   -2.1450 H       1  LIG1        0.0643
     36 H          -7.9841   -3.4052    0.6081 H       1  LIG1        0.0637
     37 H          -5.9979   -2.6778    1.5258 H       1  LIG1        0.0677
     38 H          -6.0475    0.0465    0.0885 H       1  LIG1        0.0790
     39 H          -3.2181    1.2853   -6.1766 H       1  LIG1        0.1601
     40 H          -3.6779    2.7423   -5.3831 H       1  LIG1        0.1601
     41 H          -4.2480   -2.2260   -0.1545 H       1  LIG1        0.1522
@<TRIPOS>BOND
     1     1     2   ar
     2     1     3   ar
     3     2     4   ar
     4     3    12   ar
     5     4    13   ar
     6     5     6   ar
     7     5    12   ar
     8     6    14   ar
     9     7     9   ar
    10     7    15   ar
    11     8    10   ar
    12     8    15   ar
    13     9    16   ar
    14    10    16   ar
    15    11    13   ar
    16    11    14   ar
    17    12    13   ar
    18    14    19    1
    19    15    21    1
    20    16    25    1
    21    17    18    2
    22    17    19    1
    23    18    21    1
    24    19    22    2
    25    20    25    1
    26    23    25    2
    27    24    25    2
    28     1    26    1
    29     2    27    1
    30     3    28    1
    31     4    29    1
    32     5    30    1
    33     6    31    1
    34     7    32    1
    35     8    33    1
    36     9    34    1
    37    10    35    1
    38    11    36    1
    39    17    37    1
    40    18    38    1
    41    20    39    1
    42    20    40    1
    43    21    41    1
