@<TRIPOS>MOLECULE
ChEBML205259
 87 91 0 0 0
SMALL
USER_CHARGES

@<TRIPOS>ATOM
      1 C         -10.6693   -5.1848    2.5820 C.ar    1  LIG1       -0.0383
      2 C         -11.9975   -5.5153    2.2983 C.ar    1  LIG1       -0.0377
      3 C          -1.7301    0.2165   -2.3902 C.ar    1  LIG1       -0.0330
      4 C          -2.3667    1.3482   -2.8876 C.ar    1  LIG1       -0.0049
      5 C         -12.3316   -3.4128    1.1298 C.ar    1  LIG1       -0.0304
      6 C         -10.1905   -1.9230    1.1067 C.ar    1  LIG1       -0.0261
      7 C         -10.9958   -3.0580    1.4039 C.ar    1  LIG1       -0.0003
      8 C         -10.1970   -3.9504    2.1222 C.ar    1  LIG1        0.0379
      9 C         -12.8177   -4.6444    1.5835 C.ar    1  LIG1        0.0453
     10 C          -2.4657   -0.9382   -2.1479 C.ar    1  LIG1        0.0676
     11 C          -8.9420   -2.1441    1.6407 C.ar    1  LIG1        0.0947
     12 C          -3.8246   -0.9100   -2.4175 C.ar    1  LIG1        0.1447
     13 C          -3.7299    1.2739   -3.1241 C.ar    1  LIG1        0.2143
     14 C          -7.7966   -1.2909    1.6003 C.2     1  LIG1        0.2598
     15 C          -4.4892   -1.5670    0.2246 C.3     1  LIG1       -0.0185
     16 C          -5.9821   -3.3974   -0.6839 C.3     1  LIG1       -0.0185
     17 C          -5.7165   -0.6619    0.3200 C.3     1  LIG1        0.0162
     18 C          -7.1761   -2.4516   -0.5456 C.3     1  LIG1        0.0162
     19 C         -16.9423   -6.2614    0.6893 C.3     1  LIG1        0.0657
     20 C         -16.8171   -3.9889   -0.2682 C.3     1  LIG1        0.0657
     21 C         -18.4296   -6.3248    0.3787 C.3     1  LIG1       -0.0170
     22 C         -18.3029   -4.0281   -0.5900 C.3     1  LIG1       -0.0170
     23 C          -4.6539   -2.6478   -0.8514 C.3     1  LIG1        0.0271
     24 C          -4.7819   -4.1204   -3.4705 C.3     1  LIG1       -0.0494
     25 C          -0.7882   -4.2430   -1.9927 C.3     1  LIG1       -0.0444
     26 C          -0.9445   -2.5577   -3.8430 C.3     1  LIG1       -0.0444
     27 C           0.5817   -2.1480   -1.8959 C.3     1  LIG1       -0.0444
     28 C         -20.4903   -4.9269    0.2079 C.3     1  LIG1       -0.0453
     29 C          -5.2811   -2.7301   -3.2696 C.3     1  LIG1        0.0104
     30 C          -0.7591   -2.7487   -2.3341 C.3     1  LIG1        0.0228
     31 N          -4.4780    0.1701   -2.9011 N.ar    1  LIG1       -0.2026
     32 N          -8.9556   -3.3696    2.2509 N.ar    1  LIG1       -0.3101
     33 N          -6.9350   -1.4617    0.5055 N.am    1  LIG1       -0.2966
     34 N         -16.2608   -5.3723   -0.2954 N.3     1  LIG1       -0.2549
     35 N          -1.8233   -2.0848   -1.6439 N.pl3   1  LIG1       -0.3369
     36 N         -14.1819   -5.0144    1.3073 N.pl3   1  LIG1       -0.2474
     37 N          -4.5722   -2.0679   -2.1768 N.pl3   1  LIG1       -0.3113
     38 N         -19.0004   -4.9265    0.4038 N.4     1  LIG1        0.2462
     39 O          -7.6002   -0.4598    2.4889 O.2     1  LIG1       -0.2702
     40 O         -14.1837   -6.8717   -0.4689 O.2     1  LIG1       -0.4642
     41 O         -14.0384   -4.4823   -1.2427 O.2     1  LIG1       -0.4642
     42 F          -4.3567    2.3593   -3.6038 F       1  LIG1       -0.1848
     43 S         -14.5504   -5.4745   -0.3146 S.O2    1  LIG1       -0.1184
     44 H         -10.0315   -5.8634    3.1384 H       1  LIG1        0.0643
     45 H         -12.3858   -6.4701    2.6463 H       1  LIG1        0.0643
     46 H          -0.6614    0.2468   -2.1943 H       1  LIG1        0.0645
     47 H          -1.8119    2.2582   -3.0848 H       1  LIG1        0.0671
     48 H         -12.9737   -2.7356    0.5726 H       1  LIG1        0.0650
     49 H         -10.4965   -1.0407    0.5602 H       1  LIG1        0.0651
     50 H          -3.5992   -0.9586    0.0250 H       1  LIG1        0.0302
     51 H          -4.3357   -2.0576    1.1945 H       1  LIG1        0.0302
     52 H          -5.9201   -4.0152    0.2214 H       1  LIG1        0.0302
     53 H          -6.1499   -4.0783   -1.5268 H       1  LIG1        0.0302
     54 H          -5.5742    0.0496    1.1374 H       1  LIG1        0.0470
     55 H          -5.8474   -0.0728   -0.5948 H       1  LIG1        0.0470
     56 H          -7.3503   -1.9043   -1.4793 H       1  LIG1        0.0470
     57 H          -8.0810   -3.0304   -0.3350 H       1  LIG1        0.0470
     58 H         -16.7709   -5.8867    1.7052 H       1  LIG1        0.0538
     59 H         -16.5224   -7.2706    0.6190 H       1  LIG1        0.0538
     60 H         -16.3080   -3.3777   -1.0213 H       1  LIG1        0.0538
     61 H         -16.6418   -3.5398    0.7164 H       1  LIG1        0.0538
     62 H         -18.6232   -6.7420   -0.6161 H       1  LIG1        0.0831
     63 H         -18.9601   -6.9113    1.1359 H       1  LIG1        0.0831
     64 H         -18.7460   -3.0309   -0.5015 H       1  LIG1        0.0831
     65 H         -18.4949   -4.4312   -1.5908 H       1  LIG1        0.0831
     66 H          -3.8305   -3.3651   -0.7558 H       1  LIG1        0.0506
     67 H          -3.7153   -4.1203   -3.7204 H       1  LIG1        0.0246
     68 H          -4.9420   -4.7262   -2.5719 H       1  LIG1        0.0246
     69 H          -5.3230   -4.5933   -4.2987 H       1  LIG1        0.0246
     70 H          -0.6573   -4.4062   -0.9166 H       1  LIG1        0.0252
     71 H          -1.7382   -4.7013   -2.2892 H       1  LIG1        0.0252
     72 H           0.0198   -4.7805   -2.5025 H       1  LIG1        0.0252
     73 H          -0.9271   -1.4951   -4.1120 H       1  LIG1        0.0252
     74 H          -1.9078   -2.9603   -4.1770 H       1  LIG1        0.0252
     75 H          -0.1536   -3.0618   -4.4093 H       1  LIG1        0.0252
     76 H           0.6299   -1.0779   -2.1285 H       1  LIG1        0.0252
     77 H           0.7387   -2.2666   -0.8180 H       1  LIG1        0.0252
     78 H           1.4195   -2.6300   -2.4130 H       1  LIG1        0.0252
     79 H         -20.6965   -5.3336   -0.7838 H       1  LIG1        0.0777
     80 H         -20.9297   -5.5517    0.9877 H       1  LIG1        0.0777
     81 H         -20.8381   -3.8952    0.2890 H       1  LIG1        0.0777
     82 H          -6.3465   -2.7374   -3.0204 H       1  LIG1        0.0466
     83 H          -5.1348   -2.1310   -4.1732 H       1  LIG1        0.0466
     84 H          -8.1700   -3.7901    2.7282 H       1  LIG1        0.1529
     85 H          -2.1426   -2.4363   -0.7596 H       1  LIG1        0.1471
     86 H         -14.5912   -5.6248    2.0276 H       1  LIG1        0.1719
     87 H         -18.8289   -4.5402    1.3424 H       1  LIG1        0.2001
@<TRIPOS>BOND
     1     1     2   ar
     2     1     8   ar
     3     2     9   ar
     4     3     4   ar
     5     3    10   ar
     6     4    13   ar
     7     5     7   ar
     8     5     9   ar
     9     6     7   ar
    10     6    11   ar
    11     7     8   ar
    12     8    32   ar
    13     9    36    1
    14    10    12   ar
    15    10    35    1
    16    11    14    1
    17    11    32   ar
    18    12    31   ar
    19    12    37    1
    20    13    31   ar
    21    13    42    1
    22    14    33   am
    23    14    39    2
    24    15    17    1
    25    15    23    1
    26    16    18    1
    27    16    23    1
    28    17    33    1
    29    18    33    1
    30    19    21    1
    31    19    34    1
    32    20    22    1
    33    20    34    1
    34    21    38    1
    35    22    38    1
    36    23    37    1
    37    24    29    1
    38    25    30    1
    39    26    30    1
    40    27    30    1
    41    28    38    1
    42    29    37    1
    43    30    35    1
    44    34    43    1
    45    36    43    1
    46    40    43    2
    47    41    43    2
    48     1    44    1
    49     2    45    1
    50     3    46    1
    51     4    47    1
    52     5    48    1
    53     6    49    1
    54    15    50    1
    55    15    51    1
    56    16    52    1
    57    16    53    1
    58    17    54    1
    59    17    55    1
    60    18    56    1
    61    18    57    1
    62    19    58    1
    63    19    59    1
    64    20    60    1
    65    20    61    1
    66    21    62    1
    67    21    63    1
    68    22    64    1
    69    22    65    1
    70    23    66    1
    71    24    67    1
    72    24    68    1
    73    24    69    1
    74    25    70    1
    75    25    71    1
    76    25    72    1
    77    26    73    1
    78    26    74    1
    79    26    75    1
    80    27    76    1
    81    27    77    1
    82    27    78    1
    83    28    79    1
    84    28    80    1
    85    28    81    1
    86    29    82    1
    87    29    83    1
    88    32    84    1
    89    35    85    1
    90    36    86    1
    91    38    87    1
