@<TRIPOS>MOLECULE
ChEBML207760
 50 53 0 0 0
SMALL
USER_CHARGES

@<TRIPOS>ATOM
      1 C          -0.8926   -3.1712   -3.0503 C.ar    1  LIG1       -0.0622
      2 C          -1.1560   -2.8729   -1.7134 C.ar    1  LIG1       -0.0620
      3 C          -1.1818   -2.2356   -4.0438 C.ar    1  LIG1       -0.0620
      4 C         -12.0360   -3.6479    1.5431 C.ar    1  LIG1       -0.0504
      5 C          -1.7087   -1.6391   -1.3699 C.ar    1  LIG1       -0.0590
      6 C          -1.7344   -1.0019   -3.7003 C.ar    1  LIG1       -0.0590
      7 C         -12.3248   -4.9632    1.1619 C.ar    1  LIG1       -0.0313
      8 C         -10.0560   -1.9779    1.8515 C.ar    1  LIG1       -0.0262
      9 C          -9.9721   -5.4206    0.7623 C.ar    1  LIG1       -0.0100
     10 C         -10.6973   -3.2082    1.5353 C.ar    1  LIG1       -0.0020
     11 C          -1.9979   -0.7036   -2.3633 C.ar    1  LIG1       -0.0480
     12 C          -9.6983   -4.1030    1.1459 C.ar    1  LIG1        0.0404
     13 C         -11.3072   -5.8342    0.7779 C.ar    1  LIG1        0.0732
     14 C          -8.7052   -2.1466    1.6520 C.ar    1  LIG1        0.0947
     15 C          -7.6525   -1.1910    1.8372 C.2     1  LIG1        0.2598
     16 C          -6.0615   -0.9161   -1.3706 C.3     1  LIG1       -0.0344
     17 C          -4.5947    0.0654    0.4339 C.3     1  LIG1       -0.0344
     18 C          -6.6191   -1.9003   -0.3440 C.3     1  LIG1        0.0147
     19 C          -5.1795   -0.9468    1.4158 C.3     1  LIG1        0.0147
     20 C          -4.6357   -0.4730   -1.0054 C.3     1  LIG1       -0.0381
     21 C          -2.5956    0.6302   -1.9928 C.3     1  LIG1       -0.0276
     22 C          -4.1224    0.5733   -1.9915 C.3     1  LIG1       -0.0463
     23 N          -8.4992   -3.4314    1.2262 N.ar    1  LIG1       -0.3100
     24 N          -6.5346   -1.3400    1.0057 N.am    1  LIG1       -0.2967
     25 O          -7.7554   -0.3059    2.6845 O.2     1  LIG1       -0.2702
     26 O         -11.6164   -7.1107    0.4110 O.3     1  LIG1       -0.3608
     27 H          -0.4610   -4.1314   -3.3174 H       1  LIG1        0.0622
     28 H          -0.9299   -3.6008   -0.9397 H       1  LIG1        0.0623
     29 H          -0.9758   -2.4671   -5.0846 H       1  LIG1        0.0623
     30 H         -12.8392   -2.9790    1.8385 H       1  LIG1        0.0630
     31 H          -1.9107   -1.4155   -0.3258 H       1  LIG1        0.0625
     32 H          -1.9566   -0.2792   -4.4810 H       1  LIG1        0.0625
     33 H         -13.3585   -5.3009    1.1687 H       1  LIG1        0.0650
     34 H         -10.5356   -1.0686    2.1883 H       1  LIG1        0.0651
     35 H          -9.1765   -6.0960    0.4642 H       1  LIG1        0.0670
     36 H          -6.0693   -1.3799   -2.3639 H       1  LIG1        0.0285
     37 H          -6.7178   -0.0374   -1.4194 H       1  LIG1        0.0285
     38 H          -5.1669    1.0002    0.4948 H       1  LIG1        0.0285
     39 H          -3.5623    0.2987    0.7194 H       1  LIG1        0.0285
     40 H          -7.6535   -2.1527   -0.5977 H       1  LIG1        0.0469
     41 H          -6.0419   -2.8324   -0.3509 H       1  LIG1        0.0469
     42 H          -4.5685   -1.8571    1.4377 H       1  LIG1        0.0469
     43 H          -5.1675   -0.5248    2.4236 H       1  LIG1        0.0469
     44 H          -3.9757   -1.3486   -1.0661 H       1  LIG1        0.0304
     45 H          -2.2321    0.9373   -1.0035 H       1  LIG1        0.0316
     46 H          -2.2508    1.3994   -2.6959 H       1  LIG1        0.0316
     47 H          -4.5407    1.5481   -1.7209 H       1  LIG1        0.0273
     48 H          -4.4965    0.3293   -2.9910 H       1  LIG1        0.0273
     49 H          -7.5984   -3.8327    1.0041 H       1  LIG1        0.1529
     50 H         -12.5737   -7.2526    0.4706 H       1  LIG1        0.2182
@<TRIPOS>BOND
     1     1     2   ar
     2     1     3   ar
     3     2     5   ar
     4     3     6   ar
     5     4     7   ar
     6     4    10   ar
     7     5    11   ar
     8     6    11   ar
     9     7    13   ar
    10     8    10   ar
    11     8    14   ar
    12     9    12   ar
    13     9    13   ar
    14    10    12   ar
    15    11    21    1
    16    12    23   ar
    17    13    26    1
    18    14    15    1
    19    14    23   ar
    20    15    24   am
    21    15    25    2
    22    16    18    1
    23    16    20    1
    24    17    19    1
    25    17    20    1
    26    18    24    1
    27    19    24    1
    28    20    22    1
    29    21    22    1
    30     1    27    1
    31     2    28    1
    32     3    29    1
    33     4    30    1
    34     5    31    1
    35     6    32    1
    36     7    33    1
    37     8    34    1
    38     9    35    1
    39    16    36    1
    40    16    37    1
    41    17    38    1
    42    17    39    1
    43    18    40    1
    44    18    41    1
    45    19    42    1
    46    19    43    1
    47    20    44    1
    48    21    45    1
    49    21    46    1
    50    22    47    1
    51    22    48    1
    52    23    49    1
    53    26    50    1
