@<TRIPOS>MOLECULE
ChEBML345568
 38 40 0 0 0
SMALL
USER_CHARGES

@<TRIPOS>ATOM
      1 C          -3.5103   -0.1050   -3.5663 C.ar    1  LIG1       -0.0601
      2 C          -2.7228    1.0355   -3.4089 C.ar    1  LIG1       -0.0592
      3 C         -10.5667   -5.0436    0.3953 C.ar    1  LIG1       -0.0387
      4 C          -3.8818   -0.8554   -2.4506 C.ar    1  LIG1       -0.0395
      5 C         -11.8113   -5.4976    0.8411 C.ar    1  LIG1       -0.0416
      6 C         -11.9434   -3.7071    2.4762 C.ar    1  LIG1       -0.0343
      7 C          -9.8579   -2.1412    2.4248 C.ar    1  LIG1       -0.0261
      8 C          -2.6781    0.6751   -1.0204 C.ar    1  LIG1       -0.0366
      9 C         -10.6898   -3.2309    2.0436 C.ar    1  LIG1       -0.0007
     10 C          -2.3067    1.4255   -2.1360 C.ar    1  LIG1       -0.0493
     11 C         -10.0317   -3.9088    1.0152 C.ar    1  LIG1        0.0379
     12 C          -3.4657   -0.4654   -1.1777 C.ar    1  LIG1        0.0561
     13 C         -12.4908   -4.8411    1.8654 C.ar    1  LIG1        0.0413
     14 C          -8.7317   -2.1781    1.6353 C.ar    1  LIG1        0.0961
     15 C          -7.6108   -1.2921    1.6477 C.2     1  LIG1        0.2743
     16 C          -1.4646    2.6451   -1.9686 C.3     1  LIG1       -0.0397
     17 N          -8.8458   -3.2476    0.7882 N.ar    1  LIG1       -0.3100
     18 N          -6.5722   -1.5407    0.7341 N.am    1  LIG1       -0.2197
     19 N          -5.4074   -0.6803    0.6836 N.3     1  LIG1       -0.2075
     20 O          -7.5486   -0.3180    2.4386 O.2     1  LIG1       -0.2687
     21 O          -2.9530   -1.1832    1.2771 O.2     1  LIG1       -0.4750
     22 O          -4.2010   -2.7664   -0.2283 O.2     1  LIG1       -0.4750
     23 S          -3.9360   -1.4184    0.2367 S.O2    1  LIG1       -0.1526
     24 CL        -14.0239   -5.4300    2.3864 Cl      1  LIG1       -0.0843
     25 H          -3.8350   -0.4084   -4.5574 H       1  LIG1        0.0623
     26 H          -2.4390    1.6146   -4.2838 H       1  LIG1        0.0625
     27 H         -10.0384   -5.5561   -0.4018 H       1  LIG1        0.0643
     28 H          -4.4951   -1.7424   -2.5851 H       1  LIG1        0.0642
     29 H         -12.2424   -6.3789    0.3709 H       1  LIG1        0.0639
     30 H         -12.4721   -3.1943    3.2755 H       1  LIG1        0.0645
     31 H         -10.0651   -1.4101    3.1949 H       1  LIG1        0.0651
     32 H          -2.3532    0.9804   -0.0286 H       1  LIG1        0.0645
     33 H          -2.0974    3.5291   -1.8235 H       1  LIG1        0.0280
     34 H          -0.7947    2.5511   -1.1042 H       1  LIG1        0.0280
     35 H          -0.8279    2.8131   -2.8470 H       1  LIG1        0.0280
     36 H          -8.1605   -3.5159    0.0953 H       1  LIG1        0.1529
     37 H          -6.5816   -2.3215    0.0871 H       1  LIG1        0.1755
     38 H          -5.3944    0.1048    1.3461 H       1  LIG1        0.1892
@<TRIPOS>BOND
     1     1     2   ar
     2     1     4   ar
     3     2    10   ar
     4     3     5   ar
     5     3    11   ar
     6     4    12   ar
     7     5    13   ar
     8     6     9   ar
     9     6    13   ar
    10     7     9   ar
    11     7    14   ar
    12     8    10   ar
    13     8    12   ar
    14     9    11   ar
    15    10    16    1
    16    11    17   ar
    17    12    23    1
    18    13    24    1
    19    14    15    1
    20    14    17   ar
    21    15    18   am
    22    15    20    2
    23    18    19    1
    24    19    23    1
    25    21    23    2
    26    22    23    2
    27     1    25    1
    28     2    26    1
    29     3    27    1
    30     4    28    1
    31     5    29    1
    32     6    30    1
    33     7    31    1
    34     8    32    1
    35    16    33    1
    36    16    34    1
    37    16    35    1
    38    17    36    1
    39    18    37    1
    40    19    38    1
