@<TRIPOS>MOLECULE
ChEBML379230
 31 34 0 0 0
SMALL
USER_CHARGES

@<TRIPOS>ATOM
      1 C         -12.5394   -4.7148    1.3952 C.ar    1  LIG1       -0.0615
      2 C          -3.0997   -0.8949   -2.2633 C.ar    1  LIG1       -0.0615
      3 C         -11.6797   -5.5305    0.6621 C.ar    1  LIG1       -0.0603
      4 C          -2.6471    0.0045   -1.2946 C.ar    1  LIG1       -0.0596
      5 C         -12.0853   -3.5143    1.9536 C.ar    1  LIG1       -0.0530
      6 C          -4.3022   -1.5950   -2.0942 C.ar    1  LIG1       -0.0522
      7 C         -10.3427   -5.1743    0.4637 C.ar    1  LIG1       -0.0402
      8 C          -3.3759    0.2377   -0.1246 C.ar    1  LIG1       -0.0306
      9 C          -9.9603   -2.0183    2.1779 C.ar    1  LIG1       -0.0275
     10 C          -6.2738   -1.8665   -0.3947 C.ar    1  LIG1       -0.0172
     11 C         -10.7413   -3.1346    1.7670 C.ar    1  LIG1       -0.0022
     12 C          -5.0515   -1.3759   -0.9250 C.ar    1  LIG1        0.0080
     13 C          -9.9027   -3.9717    1.0279 C.ar    1  LIG1        0.0378
     14 C          -4.5669   -0.4725    0.0154 C.ar    1  LIG1        0.0895
     15 C          -8.6863   -2.1961    1.6896 C.ar    1  LIG1        0.0819
     16 C          -6.4508   -1.2386    0.8164 C.ar    1  LIG1        0.1320
     17 C          -7.5511   -1.3422    1.8425 C.2     1  LIG1        0.2300
     18 N          -8.6615   -3.3769    0.9972 N.ar    1  LIG1       -0.3111
     19 O          -7.4108   -0.6219    2.8582 O.2     1  LIG1       -0.2848
     20 O          -5.4207   -0.3911    1.0744 O.2     1  LIG1       -0.3056
     21 H         -13.5753   -5.0125    1.5351 H       1  LIG1        0.0623
     22 H          -2.5113   -1.0547   -3.1631 H       1  LIG1        0.0623
     23 H         -12.0535   -6.4585    0.2376 H       1  LIG1        0.0623
     24 H          -1.7106    0.5335   -1.4529 H       1  LIG1        0.0623
     25 H         -12.7664   -2.8876    2.5226 H       1  LIG1        0.0629
     26 H          -4.6414   -2.2905   -2.8560 H       1  LIG1        0.0630
     27 H          -9.6735   -5.8097   -0.1066 H       1  LIG1        0.0642
     28 H          -3.0312    0.9342    0.6303 H       1  LIG1        0.0650
     29 H         -10.2988   -1.1768    2.7679 H       1  LIG1        0.0651
     30 H          -6.9399   -2.5902   -0.8438 H       1  LIG1        0.0659
     31 H          -7.8508   -3.7601    0.5306 H       1  LIG1        0.1529
@<TRIPOS>BOND
     1     1     3   ar
     2     1     5   ar
     3     2     4   ar
     4     2     6   ar
     5     3     7   ar
     6     4     8   ar
     7     5    11   ar
     8     6    12   ar
     9     7    13   ar
    10     8    14   ar
    11     9    11   ar
    12     9    15   ar
    13    10    12   ar
    14    10    16   ar
    15    11    13   ar
    16    12    14   ar
    17    13    18   ar
    18    14    20   ar
    19    15    17    1
    20    15    18   ar
    21    16    17    1
    22    16    20   ar
    23    17    19    2
    24     1    21    1
    25     2    22    1
    26     3    23    1
    27     4    24    1
    28     5    25    1
    29     6    26    1
    30     7    27    1
    31     8    28    1
    32     9    29    1
    33    10    30    1
    34    18    31    1
