@<TRIPOS>MOLECULE
ChEBML174933
 41 44 0 0 0
SMALL
USER_CHARGES

@<TRIPOS>ATOM
      1 C          -3.2823    0.4720   -3.9978 C.ar    1  LIG1       -0.0616
      2 C          -2.0277    1.0679   -4.0849 C.ar    1  LIG1       -0.0615
      3 C          -3.7011   -0.1021   -2.7972 C.ar    1  LIG1       -0.0536
      4 C          -1.1869    1.0919   -2.9718 C.ar    1  LIG1       -0.0517
      5 C          -2.4324   -0.6361    0.6629 C.ar    1  LIG1       -0.0501
      6 C         -10.5825   -5.2035    0.9725 C.ar    1  LIG1       -0.0376
      7 C          -1.1776   -0.0403    0.5757 C.ar    1  LIG1       -0.0308
      8 C         -11.9510   -5.4250    1.1510 C.ar    1  LIG1       -0.0302
      9 C         -12.2927   -3.1222    1.8419 C.ar    1  LIG1       -0.0229
     10 C         -10.0856   -1.7320    1.8374 C.ar    1  LIG1       -0.0261
     11 C          -2.8679   -0.0871   -1.6667 C.ar    1  LIG1       -0.0069
     12 C          -1.5920    0.5188   -1.7553 C.ar    1  LIG1        0.0123
     13 C         -10.9164   -2.8750    1.6691 C.ar    1  LIG1        0.0004
     14 C          -3.2732   -0.6601   -0.4502 C.ar    1  LIG1        0.0023
     15 C         -10.0946   -3.9193    1.2393 C.ar    1  LIG1        0.0380
     16 C         -12.7948   -4.4020    1.5789 C.ar    1  LIG1        0.0720
     17 C          -0.7589    0.5338   -0.6249 C.ar    1  LIG1        0.0792
     18 C          -8.7995   -2.0977    1.5127 C.ar    1  LIG1        0.0962
     19 C          -4.5732   -1.3032   -0.2814 C.2     1  LIG1        0.0530
     20 C          -7.5715   -1.2614    1.5278 C.2     1  LIG1        0.2767
     21 N          -5.4476   -0.8915    0.5887 N.2     1  LIG1       -0.1889
     22 N          -8.8151   -3.4186    1.1531 N.ar    1  LIG1       -0.3100
     23 N          -6.5979   -1.6060    0.6091 N.am    1  LIG1       -0.2021
     24 O          -7.4764   -0.3448    2.3403 O.2     1  LIG1       -0.2685
     25 O         -14.1250   -4.6491    1.7437 O.3     1  LIG1       -0.3609
     26 O           0.4800    1.1077   -0.6622 O.3     1  LIG1       -0.3602
     27 H          -3.9367    0.4539   -4.8645 H       1  LIG1        0.0623
     28 H          -1.7038    1.5161   -5.0198 H       1  LIG1        0.0623
     29 H          -4.6882   -0.5580   -2.7700 H       1  LIG1        0.0629
     30 H          -0.2131    1.5654   -3.0743 H       1  LIG1        0.0630
     31 H          -2.7446   -1.0801    1.6051 H       1  LIG1        0.0631
     32 H          -9.9265   -6.0005    0.6390 H       1  LIG1        0.0643
     33 H          -0.5290   -0.0257    1.4475 H       1  LIG1        0.0650
     34 H         -12.3558   -6.4144    0.9504 H       1  LIG1        0.0651
     35 H         -12.9574   -2.3296    2.1746 H       1  LIG1        0.0657
     36 H         -10.3995   -0.7488    2.1618 H       1  LIG1        0.0651
     37 H          -4.7944   -2.1750   -0.9357 H       1  LIG1        0.0863
     38 H          -8.0063   -3.9523    0.8651 H       1  LIG1        0.1529
     39 H          -6.6835   -2.3834   -0.0376 H       1  LIG1        0.1790
     40 H         -14.5797   -3.8464    2.0431 H       1  LIG1        0.2182
     41 H           0.9095    1.0258    0.2024 H       1  LIG1        0.2182
@<TRIPOS>BOND
     1     1     2   ar
     2     1     3   ar
     3     2     4   ar
     4     3    11   ar
     5     4    12   ar
     6     5     7   ar
     7     5    14   ar
     8     6     8   ar
     9     6    15   ar
    10     7    17   ar
    11     8    16   ar
    12     9    13   ar
    13     9    16   ar
    14    10    13   ar
    15    10    18   ar
    16    11    12   ar
    17    11    14   ar
    18    12    17   ar
    19    13    15   ar
    20    14    19    1
    21    15    22   ar
    22    16    25    1
    23    17    26    1
    24    18    20    1
    25    18    22   ar
    26    19    21    2
    27    20    23   am
    28    20    24    2
    29    21    23    1
    30     1    27    1
    31     2    28    1
    32     3    29    1
    33     4    30    1
    34     5    31    1
    35     6    32    1
    36     7    33    1
    37     8    34    1
    38     9    35    1
    39    10    36    1
    40    19    37    1
    41    22    38    1
    42    23    39    1
    43    25    40    1
    44    26    41    1
