@<TRIPOS>MOLECULE
ChEBML881009
 41 44 0 0 0
SMALL
USER_CHARGES

@<TRIPOS>ATOM
      1 C         -11.9880   -5.5267    1.4703 C.ar    1  LIG1       -0.0619
      2 C         -10.8649   -5.9240    0.7494 C.ar    1  LIG1       -0.0619
      3 C         -12.0571   -4.2387    2.0002 C.ar    1  LIG1       -0.0586
      4 C          -9.8061   -5.0357    0.5623 C.ar    1  LIG1       -0.0572
      5 C          -4.2253    0.5170   -2.6292 C.ar    1  LIG1       -0.0571
      6 C          -2.3836   -0.9833   -2.1881 C.ar    1  LIG1       -0.0571
      7 C          -3.3390    1.4433   -3.1791 C.ar    1  LIG1       -0.0432
      8 C          -1.4974   -0.0570   -2.7380 C.ar    1  LIG1       -0.0432
      9 C         -11.0044   -3.3341    1.8059 C.ar    1  LIG1       -0.0416
     10 C          -9.8607   -3.7394    1.0946 C.ar    1  LIG1       -0.0273
     11 C          -3.7475   -0.6962   -2.1337 C.ar    1  LIG1       -0.0397
     12 C          -1.9751    1.1562   -3.2336 C.ar    1  LIG1        0.0406
     13 C          -6.4669   -1.0481    1.4184 C.ar    1  LIG1        0.2586
     14 C          -5.1226   -1.4278   -0.1516 C.ar    1  LIG1        0.1763
     15 C          -7.7114   -0.8412    2.1009 C.2     1  LIG1        0.2910
     16 C         -11.0807   -1.9543    2.4059 C.3     1  LIG1       -0.0116
     17 C          -8.6947   -2.8055    0.8732 C.3     1  LIG1        0.0399
     18 C         -10.1770   -0.9777    1.6633 C.3     1  LIG1        0.0190
     19 C          -4.7164   -1.7099   -1.5339 C.3     1  LIG1        0.0396
     20 N          -5.2699   -1.0237    1.9562 N.ar    1  LIG1       -0.1165
     21 N          -4.3855   -1.2734    0.9234 N.ar    1  LIG1       -0.1263
     22 N          -8.8213   -1.5143    1.5666 N.am    1  LIG1       -0.2899
     23 O          -7.7695   -0.1079    3.0863 O.2     1  LIG1       -0.2673
     24 O          -6.4577   -1.2990    0.0806 O.2     1  LIG1       -0.2686
     25 CL         -0.8821    2.2988   -3.9121 Cl      1  LIG1       -0.0843
     26 H         -12.8101   -6.2203    1.6209 H       1  LIG1        0.0623
     27 H         -10.8117   -6.9267    0.3356 H       1  LIG1        0.0623
     28 H         -12.9379   -3.9430    2.5645 H       1  LIG1        0.0625
     29 H          -8.9334   -5.3605    0.0007 H       1  LIG1        0.0626
     30 H          -5.2865    0.7482   -2.5902 H       1  LIG1        0.0626
     31 H          -2.0034   -1.9263   -1.8045 H       1  LIG1        0.0626
     32 H          -3.7258    2.3843   -3.5616 H       1  LIG1        0.0638
     33 H          -0.4373   -0.2944   -2.7738 H       1  LIG1        0.0638
     34 H         -12.1111   -1.5819    2.3736 H       1  LIG1        0.0332
     35 H         -10.7759   -2.0205    3.4576 H       1  LIG1        0.0332
     36 H          -7.7752   -3.3075    1.1908 H       1  LIG1        0.0520
     37 H          -8.6137   -2.5792   -0.1968 H       1  LIG1        0.0520
     38 H         -10.5354   -0.8114    0.6397 H       1  LIG1        0.0473
     39 H         -10.1816   -0.0084    2.1720 H       1  LIG1        0.0473
     40 H          -5.5947   -1.7819   -2.2130 H       1  LIG1        0.0405
     41 H          -4.2540   -2.7176   -1.6277 H       1  LIG1        0.0405
@<TRIPOS>BOND
     1     1     2   ar
     2     1     3   ar
     3     2     4   ar
     4     3     9   ar
     5     4    10   ar
     6     5     7   ar
     7     5    11   ar
     8     6     8   ar
     9     6    11   ar
    10     7    12   ar
    11     8    12   ar
    12     9    10   ar
    13     9    16    1
    14    10    17    1
    15    11    19    1
    16    12    25    1
    17    13    15    1
    18    13    20   ar
    19    13    24   ar
    20    14    19    1
    21    14    21   ar
    22    14    24   ar
    23    15    22   am
    24    15    23    2
    25    16    18    1
    26    17    22    1
    27    18    22    1
    28    20    21   ar
    29     1    26    1
    30     2    27    1
    31     3    28    1
    32     4    29    1
    33     5    30    1
    34     6    31    1
    35     7    32    1
    36     8    33    1
    37    16    34    1
    38    16    35    1
    39    17    36    1
    40    17    37    1
    41    18    38    1
    42    18    39    1
    43    19    40    1
    44    19    41    1
