@<TRIPOS>MOLECULE
ChEBML411645
 41 43 0 0 0
SMALL
USER_CHARGES

@<TRIPOS>ATOM
      1 C         -10.4532   -2.1712    2.2604 C.ar    1  LIG1       -0.0519
      2 C          -3.4625   -1.8152   -1.6799 C.ar    1  LIG1       -0.0559
      3 C          -4.2979   -0.0191   -0.2966 C.ar    1  LIG1       -0.0559
      4 C          -9.0818   -1.9338    2.1353 C.ar    1  LIG1       -0.0400
      5 C          -2.9759   -0.8831   -2.5964 C.ar    1  LIG1       -0.0315
      6 C          -3.8112    0.9130   -1.2132 C.ar    1  LIG1       -0.0315
      7 C         -12.4164   -3.7203    1.5860 C.ar    1  LIG1       -0.0344
      8 C          -8.8516   -3.8775    0.7146 C.ar    1  LIG1       -0.0261
      9 C         -11.0516   -3.2762    1.6082 C.ar    1  LIG1       -0.0102
     10 C          -4.1236   -1.3832   -0.5301 C.ar    1  LIG1       -0.0387
     11 C          -8.2914   -2.7794    1.3699 C.ar    1  LIG1        0.0336
     12 C          -3.1503    0.4811   -2.3630 C.ar    1  LIG1        0.0746
     13 C         -10.2344   -4.1139    0.8428 C.ar    1  LIG1        0.0215
     14 C         -12.5987   -4.8514    0.8265 C.ar    1  LIG1        0.0775
     15 C         -13.8035   -5.5732    0.5742 C.2     1  LIG1        0.2724
     16 C          -6.0751   -2.8321    0.1740 C.2     1  LIG1        0.2204
     17 C          -2.0073    0.8797   -4.4101 C.3     1  LIG1        0.0422
     18 C          -4.6486   -2.3896    0.4601 C.3     1  LIG1        0.0498
     19 N          -6.9227   -2.5315    1.2529 N.am    1  LIG1       -0.2851
     20 N         -14.9880   -5.1053    1.1569 N.am    1  LIG1       -0.1935
     21 O         -13.8225   -6.5966   -0.1588 O.2     1  LIG1       -0.2690
     22 O          -6.3937   -3.3784   -0.8772 O.2     1  LIG1       -0.2769
     23 O         -16.1702   -5.8121    0.8934 O.3     1  LIG1       -0.2964
     24 O          -2.6742    1.3904   -3.2568 O.3     1  LIG1       -0.3493
     25 S         -11.1411   -5.3965    0.1312 S.2     1  LIG1       -0.0837
     26 H         -11.0596   -1.4998    2.8635 H       1  LIG1        0.0630
     27 H          -3.3224   -2.8759   -1.8698 H       1  LIG1        0.0626
     28 H          -4.8119    0.3267    0.5966 H       1  LIG1        0.0626
     29 H          -8.6453   -1.0786    2.6458 H       1  LIG1        0.0642
     30 H          -2.4615   -1.2258   -3.4903 H       1  LIG1        0.0650
     31 H          -3.9499    1.9741   -1.0255 H       1  LIG1        0.0650
     32 H         -13.2230   -3.2213    2.1099 H       1  LIG1        0.0643
     33 H          -8.2332   -4.5406    0.1148 H       1  LIG1        0.0654
     34 H          -1.6781    1.7102   -5.0392 H       1  LIG1        0.0535
     35 H          -2.6880    0.2327   -4.9691 H       1  LIG1        0.0535
     36 H          -1.1376    0.3007   -4.0905 H       1  LIG1        0.0535
     37 H          -4.0002   -3.2749    0.4642 H       1  LIG1        0.0414
     38 H          -4.6067   -1.9658    1.4714 H       1  LIG1        0.0414
     39 H          -6.4799   -2.0716    2.0564 H       1  LIG1        0.1556
     40 H         -14.9905   -4.2836    1.7490 H       1  LIG1        0.1839
     41 H         -15.8252   -6.5142    0.3163 H       1  LIG1        0.2427
@<TRIPOS>BOND
     1     1     4   ar
     2     1     9   ar
     3     2     5   ar
     4     2    10   ar
     5     3     6   ar
     6     3    10   ar
     7     4    11   ar
     8     5    12   ar
     9     6    12   ar
    10     7     9   ar
    11     7    14   ar
    12     8    11   ar
    13     8    13   ar
    14     9    13   ar
    15    10    18    1
    16    11    19    1
    17    12    24    1
    18    13    25   ar
    19    14    15    1
    20    14    25   ar
    21    15    20   am
    22    15    21    2
    23    16    18    1
    24    16    19   am
    25    16    22    2
    26    17    24    1
    27    20    23    1
    28     1    26    1
    29     2    27    1
    30     3    28    1
    31     4    29    1
    32     5    30    1
    33     6    31    1
    34     7    32    1
    35     8    33    1
    36    17    34    1
    37    17    35    1
    38    17    36    1
    39    18    37    1
    40    18    38    1
    41    19    39    1
    42    20    40    1
    43    23    41    1
