@<TRIPOS>MOLECULE
ChEBML208605
 48 51 0 0 0
SMALL
USER_CHARGES

@<TRIPOS>ATOM
      1 C          -1.4816    1.3379   -3.4538 C.ar    1  LIG1       -0.0622
      2 C          -2.8455    1.6287   -3.4290 C.ar    1  LIG1       -0.0620
      3 C          -1.0338    0.0630   -3.1075 C.ar    1  LIG1       -0.0620
      4 C          -3.7618    0.6446   -3.0579 C.ar    1  LIG1       -0.0590
      5 C          -1.9501   -0.9211   -2.7364 C.ar    1  LIG1       -0.0590
      6 C          -9.6931   -2.5515    2.4981 C.ar    1  LIG1       -0.0236
      7 C         -10.2751   -4.4673   -0.5079 C.ar    1  LIG1       -0.0099
      8 C         -12.0915   -5.0959    0.9786 C.ar    1  LIG1       -0.0012
      9 C         -10.4440   -3.4893    1.7355 C.ar    1  LIG1        0.0280
     10 C          -3.3141   -0.6303   -2.7115 C.ar    1  LIG1       -0.0477
     11 C          -9.8049   -3.6187    0.5005 C.ar    1  LIG1        0.0430
     12 C         -11.4329   -5.2049   -0.2446 C.ar    1  LIG1        0.0758
     13 C         -11.6096   -4.2428    1.9781 C.ar    1  LIG1        0.0831
     14 C          -8.6323   -2.1376    1.7258 C.ar    1  LIG1        0.0948
     15 C          -7.6004   -1.2004    2.0605 C.2     1  LIG1        0.2598
     16 C          -5.5420   -2.7961   -0.4122 C.3     1  LIG1       -0.0341
     17 C          -5.0922   -0.3131   -0.3520 C.3     1  LIG1       -0.0341
     18 C          -5.8743   -2.7443    1.0779 C.3     1  LIG1        0.0147
     19 C          -5.4261   -0.3207    1.1377 C.3     1  LIG1        0.0147
     20 C          -4.5595   -1.6816   -0.8063 C.3     1  LIG1       -0.0344
     21 C          -4.3016   -1.6917   -2.3111 C.3     1  LIG1       -0.0249
     22 N          -8.7084   -2.7865    0.5227 N.ar    1  LIG1       -0.3099
     23 N          -6.3562   -1.4138    1.4525 N.am    1  LIG1       -0.2967
     24 O          -7.8260   -0.2755    2.8388 O.2     1  LIG1       -0.2702
     25 O         -11.9238   -6.0436   -1.2010 O.3     1  LIG1       -0.3607
     26 O         -12.2795   -4.1577    3.1692 O.3     1  LIG1       -0.3601
     27 H          -0.7683    2.1039   -3.7441 H       1  LIG1        0.0622
     28 H          -3.1944    2.6210   -3.6996 H       1  LIG1        0.0623
     29 H           0.0280   -0.1640   -3.1277 H       1  LIG1        0.0623
     30 H          -4.8226    0.8803   -3.0412 H       1  LIG1        0.0625
     31 H          -1.5921   -1.9116   -2.4681 H       1  LIG1        0.0625
     32 H          -9.9087   -2.2175    3.5045 H       1  LIG1        0.0652
     33 H          -9.7589   -4.5489   -1.4592 H       1  LIG1        0.0670
     34 H         -12.9910   -5.6801    1.1606 H       1  LIG1        0.0678
     35 H          -5.1184   -3.7767   -0.6587 H       1  LIG1        0.0285
     36 H          -6.4689   -2.6900   -0.9908 H       1  LIG1        0.0285
     37 H          -5.9947   -0.0600   -0.9234 H       1  LIG1        0.0285
     38 H          -4.3498    0.4670   -0.5573 H       1  LIG1        0.0285
     39 H          -6.6182   -3.5105    1.3177 H       1  LIG1        0.0469
     40 H          -4.9815   -2.9530    1.6792 H       1  LIG1        0.0469
     41 H          -4.5196   -0.4823    1.7331 H       1  LIG1        0.0469
     42 H          -5.8323    0.6523    1.4244 H       1  LIG1        0.0469
     43 H          -3.6044   -1.8674   -0.2973 H       1  LIG1        0.0307
     44 H          -5.2463   -1.5431   -2.8440 H       1  LIG1        0.0319
     45 H          -3.9318   -2.6778   -2.6110 H       1  LIG1        0.0319
     46 H          -8.0554   -2.6741   -0.2409 H       1  LIG1        0.1530
     47 H         -12.7249   -6.4850   -0.8786 H       1  LIG1        0.2182
     48 H         -13.0507   -4.7421    3.1546 H       1  LIG1        0.2182
@<TRIPOS>BOND
     1     1     2   ar
     2     1     3   ar
     3     2     4   ar
     4     3     5   ar
     5     4    10   ar
     6     5    10   ar
     7     6     9   ar
     8     6    14   ar
     9     7    11   ar
    10     7    12   ar
    11     8    12   ar
    12     8    13   ar
    13     9    11   ar
    14     9    13   ar
    15    10    21    1
    16    11    22   ar
    17    12    25    1
    18    13    26    1
    19    14    15    1
    20    14    22   ar
    21    15    23   am
    22    15    24    2
    23    16    18    1
    24    16    20    1
    25    17    19    1
    26    17    20    1
    27    18    23    1
    28    19    23    1
    29    20    21    1
    30     1    27    1
    31     2    28    1
    32     3    29    1
    33     4    30    1
    34     5    31    1
    35     6    32    1
    36     7    33    1
    37     8    34    1
    38    16    35    1
    39    16    36    1
    40    17    37    1
    41    17    38    1
    42    18    39    1
    43    18    40    1
    44    19    41    1
    45    19    42    1
    46    20    43    1
    47    21    44    1
    48    21    45    1
    49    22    46    1
    50    25    47    1
    51    26    48    1
