@<TRIPOS>MOLECULE
ChEBML459905
 55 59 0 0 0
SMALL
USER_CHARGES

@<TRIPOS>ATOM
      1 C          -1.9294    2.5428   -4.6244 C.ar    1  LIG1       -0.0600
      2 C          -0.9445    1.5593   -4.7424 C.ar    1  LIG1       -0.0602
      3 C          -8.5837   -3.5491    2.2254 C.ar    1  LIG1       -0.0478
      4 C          -9.8791   -1.7464    1.2719 C.ar    1  LIG1       -0.0478
      5 C          -2.9985    2.3899   -3.7328 C.ar    1  LIG1       -0.0344
      6 C          -0.9910    0.3900   -3.9761 C.ar    1  LIG1       -0.0385
      7 C          -9.6706   -4.4100    2.0745 C.ar    1  LIG1       -0.0401
      8 C         -10.9662   -2.6074    1.1210 C.ar    1  LIG1       -0.0401
      9 C          -8.6879   -2.2171    1.8241 C.ar    1  LIG1        0.0374
     10 C          -3.0611    1.2212   -2.9551 C.ar    1  LIG1        0.0862
     11 C          -2.0647    0.2592   -3.0948 C.ar    1  LIG1        0.0573
     12 C         -10.8619   -3.9391    1.5224 C.ar    1  LIG1        0.0287
     13 C          -3.5752   -0.3417   -1.5940 C.ar    1  LIG1        0.1020
     14 C          -7.5509   -1.3166    1.9820 C.2     1  LIG1        0.2455
     15 C          -5.6420   -1.6052   -1.0297 C.3     1  LIG1       -0.0275
     16 C          -4.2871   -0.4686    0.7859 C.3     1  LIG1       -0.0275
     17 C          -6.3693   -2.3991    0.0549 C.3     1  LIG1        0.0151
     18 C          -5.0452   -1.2987    1.8197 C.3     1  LIG1        0.0151
     19 C         -11.6975   -5.9622    0.5172 C.3     1  LIG1        0.0351
     20 C         -13.2364   -4.1354    1.1815 C.3     1  LIG1        0.0351
     21 C         -12.8932   -6.9053    0.5857 C.3     1  LIG1        0.0624
     22 C         -14.3502   -5.1762    1.2139 C.3     1  LIG1        0.0624
     23 C          -4.2267   -1.1976   -0.5720 C.3     1  LIG1        0.0179
     24 N          -3.9904    0.8308   -2.0185 N.ar    1  LIG1       -0.2357
     25 N          -2.4191   -0.7290   -2.2125 N.ar    1  LIG1       -0.3011
     26 N         -11.9609   -4.8098    1.3699 N.pl3   1  LIG1       -0.3261
     27 N          -6.3785   -1.6559    1.3162 N.am    1  LIG1       -0.2978
     28 O          -7.7340   -0.3341    2.6944 O.2     1  LIG1       -0.2716
     29 O         -14.0969   -6.2094    0.2626 O.3     1  LIG1       -0.3781
     30 H          -1.8654    3.4410   -5.2334 H       1  LIG1        0.0623
     31 H          -0.1266    1.7040   -5.4441 H       1  LIG1        0.0623
     32 H          -7.6601   -3.9264    2.6569 H       1  LIG1        0.0631
     33 H          -9.9714   -0.7105    0.9557 H       1  LIG1        0.0631
     34 H          -3.7578    3.1606   -3.6481 H       1  LIG1        0.0646
     35 H          -0.2270   -0.3738   -4.0656 H       1  LIG1        0.0643
     36 H          -9.5786   -5.4460    2.3907 H       1  LIG1        0.0642
     37 H         -11.8898   -2.2301    0.6895 H       1  LIG1        0.0642
     38 H          -5.5866   -2.2020   -1.9485 H       1  LIG1        0.0290
     39 H          -6.2265   -0.7069   -1.2712 H       1  LIG1        0.0290
     40 H          -4.7857    0.5027    0.6650 H       1  LIG1        0.0290
     41 H          -3.2734   -0.2619    1.1501 H       1  LIG1        0.0290
     42 H          -7.3909   -2.6218   -0.2696 H       1  LIG1        0.0470
     43 H          -5.8644   -3.3550    0.2369 H       1  LIG1        0.0470
     44 H          -4.5124   -2.2343    2.0270 H       1  LIG1        0.0470
     45 H          -5.1058   -0.7447    2.7598 H       1  LIG1        0.0470
     46 H         -10.7931   -6.4950    0.8336 H       1  LIG1        0.0492
     47 H         -11.5548   -5.6254   -0.5176 H       1  LIG1        0.0492
     48 H         -13.2411   -3.6248    0.2100 H       1  LIG1        0.0492
     49 H         -13.4131   -3.3878    1.9637 H       1  LIG1        0.0492
     50 H         -12.7689   -7.7174   -0.1377 H       1  LIG1        0.0583
     51 H         -12.9892   -7.3594    1.5795 H       1  LIG1        0.0583
     52 H         -14.4535   -5.6185    2.2123 H       1  LIG1        0.0583
     53 H         -15.3065   -4.7088    0.9584 H       1  LIG1        0.0583
     54 H          -3.6207   -2.1052   -0.4560 H       1  LIG1        0.0383
     55 H          -1.9127   -1.5895   -2.0498 H       1  LIG1        0.1540
@<TRIPOS>BOND
     1     1     2   ar
     2     1     5   ar
     3     2     6   ar
     4     3     7   ar
     5     3     9   ar
     6     4     8   ar
     7     4     9   ar
     8     5    10   ar
     9     6    11   ar
    10     7    12   ar
    11     8    12   ar
    12     9    14    1
    13    10    11   ar
    14    10    24   ar
    15    11    25   ar
    16    12    26    1
    17    13    23    1
    18    13    24   ar
    19    13    25   ar
    20    14    27   am
    21    14    28    2
    22    15    17    1
    23    15    23    1
    24    16    18    1
    25    16    23    1
    26    17    27    1
    27    18    27    1
    28    19    21    1
    29    19    26    1
    30    20    22    1
    31    20    26    1
    32    21    29    1
    33    22    29    1
    34     1    30    1
    35     2    31    1
    36     3    32    1
    37     4    33    1
    38     5    34    1
    39     6    35    1
    40     7    36    1
    41     8    37    1
    42    15    38    1
    43    15    39    1
    44    16    40    1
    45    16    41    1
    46    17    42    1
    47    17    43    1
    48    18    44    1
    49    18    45    1
    50    19    46    1
    51    19    47    1
    52    20    48    1
    53    20    49    1
    54    21    50    1
    55    21    51    1
    56    22    52    1
    57    22    53    1
    58    23    54    1
    59    25    55    1
