@<TRIPOS>MOLECULE
ChEBML1274718
 34 36 0 0 0
SMALL
USER_CHARGES

@<TRIPOS>ATOM
      1 C         -15.9457   -5.1202    2.8879 C.ar    1  LIG1       -0.0432
      2 C         -14.6209   -4.7277    2.7329 C.ar    1  LIG1       -0.0513
      3 C         -11.6840   -5.5238    0.6649 C.ar    1  LIG1       -0.0524
      4 C         -10.3464   -5.1708    0.4644 C.ar    1  LIG1       -0.0396
      5 C         -12.0824   -3.5080    1.9590 C.ar    1  LIG1       -0.0451
      6 C          -9.9534   -2.0171    2.1806 C.ar    1  LIG1       -0.0254
      7 C         -16.5198   -5.8783    1.8802 C.ar    1  LIG1        0.0268
      8 C         -14.5850   -5.8594    0.6414 C.ar    1  LIG1        0.0346
      9 C         -10.7378   -3.1312    1.7702 C.ar    1  LIG1       -0.0015
     10 C         -12.5404   -4.7068    1.4003 C.ar    1  LIG1       -0.0161
     11 C         -13.9204   -5.1002    1.5910 C.ar    1  LIG1        0.0000
     12 C          -9.9026   -3.9696    1.0288 C.ar    1  LIG1        0.0379
     13 C          -8.6808   -2.1975    1.6898 C.ar    1  LIG1        0.1046
     14 C          -7.5432   -1.3463    1.8407 C.2     1  LIG1        0.3070
     15 C          -5.1601   -0.1205    0.1238 C.3     1  LIG1       -0.0409
     16 C          -5.2150   -1.0806    1.2929 C.3     1  LIG1        0.0539
     17 N         -15.8713   -6.2594    0.7569 N.ar    1  LIG1       -0.2640
     18 N          -8.6600   -3.3778    0.9962 N.ar    1  LIG1       -0.3094
     19 O          -7.5263   -0.2616    2.4673 O.2     1  LIG1       -0.2591
     20 O          -6.4229   -1.8449    1.2123 O.3     1  LIG1       -0.3114
     21 H         -16.5116   -4.8425    3.7697 H       1  LIG1        0.0639
     22 H         -14.1476   -4.1322    3.5095 H       1  LIG1        0.0630
     23 H         -12.0456   -6.4553    0.2331 H       1  LIG1        0.0630
     24 H          -9.6805   -5.8066   -0.1093 H       1  LIG1        0.0643
     25 H         -12.7488   -2.8683    2.5326 H       1  LIG1        0.0636
     26 H         -10.2886   -1.1758    2.7726 H       1  LIG1        0.0652
     27 H         -17.5508   -6.2094    1.9531 H       1  LIG1        0.0839
     28 H         -14.0941   -6.1835   -0.2718 H       1  LIG1        0.0846
     29 H          -5.1679   -0.6617   -0.8265 H       1  LIG1        0.0254
     30 H          -6.0134    0.5653    0.1470 H       1  LIG1        0.0254
     31 H          -4.2557    0.4952    0.1722 H       1  LIG1        0.0254
     32 H          -5.2069   -0.5329    2.2400 H       1  LIG1        0.0570
     33 H          -4.3622   -1.7655    1.2676 H       1  LIG1        0.0570
     34 H          -7.8515   -3.7618    0.5265 H       1  LIG1        0.1530
@<TRIPOS>BOND
     1     1     2   ar
     2     1     7   ar
     3     2    11   ar
     4     3     4   ar
     5     3    10   ar
     6     4    12   ar
     7     5     9   ar
     8     5    10   ar
     9     6     9   ar
    10     6    13   ar
    11     7    17   ar
    12     8    11   ar
    13     8    17   ar
    14     9    12   ar
    15    10    11    1
    16    12    18   ar
    17    13    14    1
    18    13    18   ar
    19    14    19    2
    20    14    20    1
    21    15    16    1
    22    16    20    1
    23     1    21    1
    24     2    22    1
    25     3    23    1
    26     4    24    1
    27     5    25    1
    28     6    26    1
    29     7    27    1
    30     8    28    1
    31    15    29    1
    32    15    30    1
    33    15    31    1
    34    16    32    1
    35    16    33    1
    36    18    34    1
