@<TRIPOS>MOLECULE
ChEBML212800
 40 42 0 0 0
SMALL
USER_CHARGES

@<TRIPOS>ATOM
      1 C         -10.3777   -5.1601    0.4765 C.ar    1  LIG1       -0.0376
      2 C         -11.6939   -5.5115    0.6697 C.ar    1  LIG1       -0.0299
      3 C         -12.0832   -3.5105    1.9459 C.ar    1  LIG1       -0.0226
      4 C          -9.9769   -2.0276    2.1799 C.ar    1  LIG1       -0.0261
      5 C         -10.7436   -3.1422    1.7618 C.ar    1  LIG1        0.0004
      6 C          -9.8864   -3.9754    1.0179 C.ar    1  LIG1        0.0380
      7 C         -12.5469   -4.6907    1.4056 C.ar    1  LIG1        0.0753
      8 C          -8.7148   -2.1912    1.7040 C.ar    1  LIG1        0.0947
      9 C          -7.5977   -1.2576    1.9118 C.2     1  LIG1        0.2602
     10 C          -5.1812   -0.8582    1.7702 C.3     1  LIG1        0.0539
     11 C          -6.3686   -2.2595    0.0398 C.3     1  LIG1        0.0539
     12 C          -4.4926   -0.1206    0.6171 C.3     1  LIG1       -0.0183
     13 C          -5.6249   -1.4512   -1.0346 C.3     1  LIG1       -0.0183
     14 C          -3.5577   -0.3651   -1.5768 C.3     1  LIG1       -0.0453
     15 C         -14.0208   -6.3048    0.9191 C.3     1  LIG1        0.0422
     16 N          -8.6480   -3.3743    0.9946 N.ar    1  LIG1       -0.3101
     17 N          -6.4305   -1.4489    1.2658 N.am    1  LIG1       -0.2863
     18 N          -4.3149   -1.0398   -0.5141 N.4     1  LIG1        0.2462
     19 O          -7.7273   -0.3127    2.6670 O.2     1  LIG1       -0.2701
     20 O         -13.8448   -5.0536    1.5866 O.3     1  LIG1       -0.3493
     21 H          -9.7253   -5.8037   -0.0951 H       1  LIG1        0.0643
     22 H         -12.0694   -6.4320    0.2476 H       1  LIG1        0.0651
     23 H         -12.7480   -2.8748    2.5122 H       1  LIG1        0.0657
     24 H         -10.3318   -1.1965    2.7714 H       1  LIG1        0.0651
     25 H          -5.4060   -0.1553    2.5723 H       1  LIG1        0.0525
     26 H          -4.5274   -1.6468    2.1428 H       1  LIG1        0.0525
     27 H          -5.8327   -3.1872    0.2406 H       1  LIG1        0.0525
     28 H          -7.3789   -2.4834   -0.3027 H       1  LIG1        0.0525
     29 H          -5.1084    0.7234    0.3063 H       1  LIG1        0.0831
     30 H          -3.5191    0.2418    0.9473 H       1  LIG1        0.0831
     31 H          -6.2064   -0.5670   -1.2954 H       1  LIG1        0.0831
     32 H          -5.4857   -2.0694   -1.9215 H       1  LIG1        0.0831
     33 H          -2.5819   -0.0663   -1.1939 H       1  LIG1        0.0777
     34 H          -3.4251   -1.0464   -2.4171 H       1  LIG1        0.0777
     35 H          -4.1042    0.5180   -1.9077 H       1  LIG1        0.0777
     36 H         -13.3482   -7.0452    1.3517 H       1  LIG1        0.0535
     37 H         -15.0521   -6.6377    1.0372 H       1  LIG1        0.0535
     38 H         -13.7967   -6.1857   -0.1409 H       1  LIG1        0.0535
     39 H          -7.8585   -3.7242    0.5528 H       1  LIG1        0.1529
     40 H          -3.8055   -1.8547   -0.2069 H       1  LIG1        0.2001
@<TRIPOS>BOND
     1     1     2   ar
     2     1     6   ar
     3     2     7   ar
     4     3     5   ar
     5     3     7   ar
     6     4     5   ar
     7     4     8   ar
     8     5     6   ar
     9     6    16   ar
    10     7    20    1
    11     8     9    1
    12     8    16   ar
    13     9    17   am
    14     9    19    2
    15    10    12    1
    16    10    17    1
    17    11    13    1
    18    11    17    1
    19    12    18    1
    20    13    18    1
    21    14    18    1
    22    15    20    1
    23     1    21    1
    24     2    22    1
    25     3    23    1
    26     4    24    1
    27    10    25    1
    28    10    26    1
    29    11    27    1
    30    11    28    1
    31    12    29    1
    32    12    30    1
    33    13    31    1
    34    13    32    1
    35    14    33    1
    36    14    34    1
    37    14    35    1
    38    15    36    1
    39    15    37    1
    40    15    38    1
    41    16    39    1
    42    18    40    1
