@<TRIPOS>MOLECULE
ChEBML394046
 42 45 0 0 0
SMALL
USER_CHARGES

@<TRIPOS>ATOM
      1 C          -2.6604    1.4573   -3.4600 C.ar    1  LIG1       -0.0618
      2 C          -1.5386    0.8102   -2.9541 C.ar    1  LIG1       -0.0604
      3 C          -3.9308    1.0394   -3.0741 C.ar    1  LIG1       -0.0571
      4 C          -1.6843   -0.2548   -2.0613 C.ar    1  LIG1       -0.0402
      5 C          -9.7274   -1.7043    1.8872 C.ar    1  LIG1       -0.0194
      6 C          -4.0852   -0.0193   -2.1670 C.ar    1  LIG1       -0.0240
      7 C         -10.1158   -3.8710    1.3726 C.ar    1  LIG1        0.0657
      8 C          -2.9578   -0.6817   -1.6510 C.ar    1  LIG1        0.0388
      9 C         -10.7050   -2.7400    1.8589 C.ar    1  LIG1        0.0381
     10 C         -10.9904   -4.9861    1.2929 C.ar    1  LIG1        0.0884
     11 C          -8.5711   -2.2781    1.4054 C.ar    1  LIG1        0.0951
     12 C         -12.2444   -4.6285    1.7407 C.ar    1  LIG1        0.0989
     13 C          -4.3839   -2.0899   -0.1813 C.2     1  LIG1        0.2395
     14 C          -7.2473   -1.6271    1.2287 C.2     1  LIG1        0.2579
     15 C          -5.4600   -0.5050   -1.8151 C.3     1  LIG1        0.0014
     16 C          -5.4656   -1.0356   -0.3934 C.3     1  LIG1        0.1042
     17 C          -1.9850   -2.6202   -0.4224 C.3     1  LIG1        0.0426
     18 C          -1.8687   -3.7446   -1.4352 C.3     1  LIG1        0.0593
     19 N          -8.8013   -3.5909    1.0923 N.ar    1  LIG1       -0.3084
     20 N          -3.1365   -1.7831   -0.7497 N.am    1  LIG1       -0.2674
     21 N          -6.7466   -1.6085   -0.0657 N.am    1  LIG1       -0.2982
     22 O          -4.5890   -3.0731    0.5347 O.2     1  LIG1       -0.2749
     23 O          -6.6681   -1.1693    2.2102 O.2     1  LIG1       -0.2704
     24 O          -1.7349   -3.1936   -2.7392 O.3     1  LIG1       -0.3947
     25 S         -12.3753   -2.9881    2.2469 S.2     1  LIG1       -0.0740
     26 CL        -10.4757   -6.5010    0.7184 Cl      1  LIG1       -0.0800
     27 CL        -13.6456   -5.6254    1.8416 Cl      1  LIG1       -0.0746
     28 H          -2.5465    2.2801   -4.1593 H       1  LIG1        0.0623
     29 H          -0.5455    1.1303   -3.2564 H       1  LIG1        0.0623
     30 H          -4.8026    1.5395   -3.4885 H       1  LIG1        0.0626
     31 H          -0.7777   -0.7283   -1.6953 H       1  LIG1        0.0642
     32 H          -9.8575   -0.6829    2.2162 H       1  LIG1        0.0657
     33 H          -6.1924    0.3067   -1.9069 H       1  LIG1        0.0341
     34 H          -5.7479   -1.2876   -2.5290 H       1  LIG1        0.0341
     35 H          -5.2840   -0.2274    0.3257 H       1  LIG1        0.0608
     36 H          -2.1222   -3.0113    0.5908 H       1  LIG1        0.0498
     37 H          -1.0891   -1.9923   -0.4458 H       1  LIG1        0.0498
     38 H          -2.7745   -4.3586   -1.4191 H       1  LIG1        0.0580
     39 H          -1.0019   -4.3818   -1.2315 H       1  LIG1        0.0580
     40 H          -8.1446   -4.2653    0.7190 H       1  LIG1        0.1530
     41 H          -7.2584   -2.0650   -0.8164 H       1  LIG1        0.1506
     42 H          -1.6639   -3.9423   -3.3530 H       1  LIG1        0.2101
@<TRIPOS>BOND
     1     1     2   ar
     2     1     3   ar
     3     2     4   ar
     4     3     6   ar
     5     4     8   ar
     6     5     9   ar
     7     5    11   ar
     8     6     8   ar
     9     6    15    1
    10     7     9   ar
    11     7    10   ar
    12     7    19   ar
    13     8    20    1
    14     9    25   ar
    15    10    12   ar
    16    10    26    1
    17    11    14    1
    18    11    19   ar
    19    12    25   ar
    20    12    27    1
    21    13    16    1
    22    13    20   am
    23    13    22    2
    24    14    21   am
    25    14    23    2
    26    15    16    1
    27    16    21    1
    28    17    18    1
    29    17    20    1
    30    18    24    1
    31     1    28    1
    32     2    29    1
    33     3    30    1
    34     4    31    1
    35     5    32    1
    36    15    33    1
    37    15    34    1
    38    16    35    1
    39    17    36    1
    40    17    37    1
    41    18    38    1
    42    18    39    1
    43    19    40    1
    44    21    41    1
    45    24    42    1
