@<TRIPOS>MOLECULE
ChEBML403740
 35 38 0 0 0
SMALL
USER_CHARGES

@<TRIPOS>ATOM
      1 C         -11.5564   -5.5122    0.7190 C.ar    1  LIG1       -0.0600
      2 C          -1.9784    2.1582   -4.4289 C.ar    1  LIG1       -0.0600
      3 C         -12.4807   -4.6018    1.2363 C.ar    1  LIG1       -0.0602
      4 C          -1.0396    1.1359   -4.5149 C.ar    1  LIG1       -0.0610
      5 C         -10.1939   -5.1953    0.6476 C.ar    1  LIG1       -0.0344
      6 C          -3.0584    2.0585   -3.5470 C.ar    1  LIG1       -0.0352
      7 C         -12.0795   -3.3446    1.7003 C.ar    1  LIG1       -0.0385
      8 C          -1.1538   -0.0104   -3.7243 C.ar    1  LIG1       -0.0459
      9 C          -9.7733   -3.9366    1.1092 C.ar    1  LIG1        0.0863
     10 C          -3.1975    0.9109   -2.7367 C.ar    1  LIG1        0.0798
     11 C         -10.7180   -3.0506    1.6195 C.ar    1  LIG1        0.0574
     12 C          -2.2411   -0.1038   -2.8408 C.ar    1  LIG1        0.0408
     13 C          -8.6800   -2.1913    1.6733 C.ar    1  LIG1        0.1256
     14 C          -4.0237   -0.4919   -1.2479 C.ar    1  LIG1        0.1663
     15 C          -5.9795   -0.6202    0.3235 C.2     1  LIG1        0.3570
     16 C          -7.6311   -1.1884    1.9356 C.3     1  LIG1        0.1138
     17 N          -8.5131   -3.3856    1.1508 N.ar    1  LIG1       -0.2334
     18 N          -4.2119    0.6739   -1.8207 N.ar    1  LIG1       -0.2252
     19 N          -9.9907   -1.9429    1.9725 N.ar    1  LIG1       -0.2994
     20 N          -4.8250   -1.1063   -0.2588 N.am    1  LIG1       -0.2395
     21 O          -6.5419    0.4445    0.0983 O.2     1  LIG1       -0.2420
     22 O          -6.4358   -1.5365    1.2362 O.3     1  LIG1       -0.2922
     23 S          -2.6483   -1.3760   -1.7506 S.2     1  LIG1       -0.0518
     24 H         -11.8988   -6.4820    0.3666 H       1  LIG1        0.0623
     25 H          -1.8731    3.0425   -5.0514 H       1  LIG1        0.0623
     26 H         -13.5325   -4.8742    1.2783 H       1  LIG1        0.0623
     27 H          -0.2056    1.2280   -5.2060 H       1  LIG1        0.0623
     28 H          -9.4839   -5.9104    0.2448 H       1  LIG1        0.0646
     29 H          -3.7865    2.8628   -3.4886 H       1  LIG1        0.0646
     30 H         -12.7954   -2.6371    2.1031 H       1  LIG1        0.0643
     31 H          -0.4164   -0.8039   -3.7957 H       1  LIG1        0.0635
     32 H          -7.9312   -0.1758    1.6112 H       1  LIG1        0.0656
     33 H          -7.3884   -1.1155    3.0108 H       1  LIG1        0.0656
     34 H         -10.3607   -1.0952    2.3820 H       1  LIG1        0.1541
     35 H          -4.5130   -2.0190    0.0642 H       1  LIG1        0.1602
@<TRIPOS>BOND
     1     1     3   ar
     2     1     5   ar
     3     2     4   ar
     4     2     6   ar
     5     3     7   ar
     6     4     8   ar
     7     5     9   ar
     8     6    10   ar
     9     7    11   ar
    10     8    12   ar
    11     9    11   ar
    12     9    17   ar
    13    10    12   ar
    14    10    18   ar
    15    11    19   ar
    16    12    23   ar
    17    13    16    1
    18    13    17   ar
    19    13    19   ar
    20    14    18   ar
    21    14    20    1
    22    14    23   ar
    23    15    20   am
    24    15    21    2
    25    15    22    1
    26    16    22    1
    27     1    24    1
    28     2    25    1
    29     3    26    1
    30     4    27    1
    31     5    28    1
    32     6    29    1
    33     7    30    1
    34     8    31    1
    35    16    32    1
    36    16    33    1
    37    19    34    1
    38    20    35    1
