@<TRIPOS>MOLECULE
ChEBML1249792
 37 40 0 0 0
SMALL
USER_CHARGES

@<TRIPOS>ATOM
      1 C          -3.6527    0.5662   -0.2041 C.ar    1  LIG1       -0.0518
      2 C          -4.1439   -1.7157   -0.8275 C.ar    1  LIG1       -0.0518
      3 C         -10.4238   -5.2446    0.4513 C.ar    1  LIG1       -0.0376
      4 C          -2.6477    0.6140   -1.1700 C.ar    1  LIG1       -0.0315
      5 C          -3.1388   -1.6680   -1.7936 C.ar    1  LIG1       -0.0315
      6 C         -11.7651   -5.5776    0.6609 C.ar    1  LIG1       -0.0302
      7 C          -5.3355    0.1153    2.1261 C.ar    1  LIG1       -0.0359
      8 C         -12.1286   -3.5478    1.9435 C.ar    1  LIG1       -0.0229
      9 C          -9.9779   -2.0857    2.1446 C.ar    1  LIG1       -0.0293
     10 C          -6.5562   -1.4596    0.7792 C.ar    1  LIG1       -0.0266
     11 C          -6.3600    0.0326    3.0553 C.ar    1  LIG1        0.0282
     12 C         -10.7799   -3.1913    1.7455 C.ar    1  LIG1        0.0003
     13 C          -4.4008   -0.5986   -0.0327 C.ar    1  LIG1       -0.0181
     14 C          -5.4431   -0.6482    0.9690 C.ar    1  LIG1       -0.0146
     15 C          -9.9602   -4.0462    1.0054 C.ar    1  LIG1        0.0379
     16 C          -2.3907   -0.5032   -1.9648 C.ar    1  LIG1        0.0713
     17 C         -12.6061   -4.7438    1.3951 C.ar    1  LIG1        0.0720
     18 C          -7.5259   -1.4720    1.7687 C.ar    1  LIG1        0.0849
     19 C          -8.7104   -2.2870    1.6486 C.ar    1  LIG1        0.0570
     20 N          -7.4564   -0.7441    2.9058 N.ar    1  LIG1       -0.2548
     21 N          -8.7097   -3.4720    0.9628 N.ar    1  LIG1       -0.3126
     22 O          -1.4105   -0.4563   -2.9078 O.3     1  LIG1       -0.3609
     23 O         -13.9100   -5.0943    1.5817 O.3     1  LIG1       -0.3609
     24 H          -3.8412    1.4451    0.4078 H       1  LIG1        0.0630
     25 H          -4.7183   -2.6310   -0.7062 H       1  LIG1        0.0630
     26 H          -9.7698   -5.8944   -0.1203 H       1  LIG1        0.0643
     27 H          -2.0685    1.5241   -1.2990 H       1  LIG1        0.0650
     28 H          -2.9432   -2.5412   -2.4100 H       1  LIG1        0.0650
     29 H         -12.1516   -6.5037    0.2416 H       1  LIG1        0.0651
     30 H          -4.4822    0.7600    2.3095 H       1  LIG1        0.0645
     31 H         -12.7904   -2.9015    2.5134 H       1  LIG1        0.0657
     32 H         -10.2991   -1.2356    2.7321 H       1  LIG1        0.0650
     33 H          -6.6615   -2.0655   -0.1166 H       1  LIG1        0.0652
     34 H          -6.3236    0.6077    3.9746 H       1  LIG1        0.0840
     35 H          -7.9099   -3.8727    0.4915 H       1  LIG1        0.1528
     36 H          -1.3529   -1.3045   -3.3758 H       1  LIG1        0.2182
     37 H         -14.3657   -4.4195    2.1086 H       1  LIG1        0.2182
@<TRIPOS>BOND
     1     1     4   ar
     2     1    13   ar
     3     2     5   ar
     4     2    13   ar
     5     3     6   ar
     6     3    15   ar
     7     4    16   ar
     8     5    16   ar
     9     6    17   ar
    10     7    11   ar
    11     7    14   ar
    12     8    12   ar
    13     8    17   ar
    14     9    12   ar
    15     9    19   ar
    16    10    14   ar
    17    10    18   ar
    18    11    20   ar
    19    12    15   ar
    20    13    14    1
    21    15    21   ar
    22    16    22    1
    23    17    23    1
    24    18    19    1
    25    18    20   ar
    26    19    21   ar
    27     1    24    1
    28     2    25    1
    29     3    26    1
    30     4    27    1
    31     5    28    1
    32     6    29    1
    33     7    30    1
    34     8    31    1
    35     9    32    1
    36    10    33    1
    37    11    34    1
    38    21    35    1
    39    22    36    1
    40    23    37    1
