@<TRIPOS>MOLECULE
ChEBML1897
 45 49 0 0 0
SMALL
USER_CHARGES

@<TRIPOS>ATOM
      1 C          -3.1815   -1.0799   -2.3902 C.ar    1  LIG1       -0.0615
      2 C          -2.4554   -0.6346   -1.2874 C.ar    1  LIG1       -0.0603
      3 C          -4.5448   -1.3763   -2.2781 C.ar    1  LIG1       -0.0530
      4 C          -3.0659   -0.4715   -0.0406 C.ar    1  LIG1       -0.0402
      5 C         -10.2181   -5.2435    0.5955 C.ar    1  LIG1       -0.0376
      6 C         -11.5500   -5.6439    0.7366 C.ar    1  LIG1       -0.0292
      7 C         -12.1410   -3.5203    1.7554 C.ar    1  LIG1       -0.0219
      8 C          -6.5112   -1.4206   -0.5647 C.ar    1  LIG1       -0.0276
      9 C         -10.1064   -1.9008    1.9588 C.ar    1  LIG1       -0.0275
     10 C          -5.1818   -1.2197   -1.0311 C.ar    1  LIG1       -0.0022
     11 C         -10.8042   -3.0948    1.6237 C.ar    1  LIG1        0.0004
     12 C          -4.4293   -0.7718    0.0566 C.ar    1  LIG1        0.0378
     13 C          -9.8756   -3.9645    1.0480 C.ar    1  LIG1        0.0379
     14 C         -12.4982   -4.7973    1.3073 C.ar    1  LIG1        0.0861
     15 C          -6.5392   -1.0972    0.7722 C.ar    1  LIG1        0.0811
     16 C          -8.7920   -2.0657    1.5873 C.ar    1  LIG1        0.0811
     17 C          -7.7100   -1.1424    1.7216 C.2     1  LIG1        0.2206
     18 C         -14.5984   -4.9112    0.3254 C.2     1  LIG1        0.2691
     19 C         -17.3796   -7.0114    0.3505 C.3     1  LIG1       -0.0517
     20 C         -16.7367   -6.0249   -0.6467 C.3     1  LIG1       -0.0410
     21 C         -16.1510   -6.7790    1.2543 C.3     1  LIG1       -0.0410
     22 C         -15.9932   -5.4114    0.5581 C.3     1  LIG1        0.0455
     23 N          -5.2790   -0.7068    1.1379 N.ar    1  LIG1       -0.3112
     24 N          -8.6625   -3.3134    1.0386 N.ar    1  LIG1       -0.3112
     25 O          -7.6797   -0.3070    2.6552 O.2     1  LIG1       -0.2856
     26 O         -14.2378   -4.3235   -0.6856 O.2     1  LIG1       -0.2658
     27 O         -13.7892   -5.2163    1.4312 O.3     1  LIG1       -0.2779
     28 H          -2.6849   -1.1980   -3.3498 H       1  LIG1        0.0623
     29 H          -1.3976   -0.4106   -1.3972 H       1  LIG1        0.0623
     30 H          -5.0991   -1.7222   -3.1462 H       1  LIG1        0.0629
     31 H          -2.5003   -0.1254    0.8180 H       1  LIG1        0.0642
     32 H          -9.4807   -5.9033    0.1508 H       1  LIG1        0.0643
     33 H         -11.8427   -6.6334    0.3929 H       1  LIG1        0.0651
     34 H         -12.8866   -2.8658    2.1988 H       1  LIG1        0.0657
     35 H          -7.3542   -1.7652   -1.1489 H       1  LIG1        0.0651
     36 H         -10.5252   -1.0175    2.4226 H       1  LIG1        0.0651
     37 H         -18.3228   -6.6567    0.7818 H       1  LIG1        0.0267
     38 H         -17.5160   -8.0328   -0.0132 H       1  LIG1        0.0267
     39 H         -16.0746   -6.5003   -1.3798 H       1  LIG1        0.0275
     40 H         -17.4352   -5.3686   -1.1725 H       1  LIG1        0.0275
     41 H         -16.3556   -6.7577    2.3282 H       1  LIG1        0.0275
     42 H         -15.3205   -7.4696    1.0659 H       1  LIG1        0.0275
     43 H         -16.5786   -4.6236    1.0509 H       1  LIG1        0.0409
     44 H          -5.0078   -0.4136    2.0665 H       1  LIG1        0.1529
     45 H          -7.8027   -3.7035    0.6777 H       1  LIG1        0.1529
@<TRIPOS>BOND
     1     1     2   ar
     2     1     3   ar
     3     2     4   ar
     4     3    10   ar
     5     4    12   ar
     6     5     6   ar
     7     5    13   ar
     8     6    14   ar
     9     7    11   ar
    10     7    14   ar
    11     8    10   ar
    12     8    15   ar
    13     9    11   ar
    14     9    16   ar
    15    10    12   ar
    16    11    13   ar
    17    12    23   ar
    18    13    24   ar
    19    14    27    1
    20    15    17    1
    21    15    23   ar
    22    16    17    1
    23    16    24   ar
    24    17    25    2
    25    18    22    1
    26    18    26    2
    27    18    27    1
    28    19    20    1
    29    19    21    1
    30    20    22    1
    31    21    22    1
    32     1    28    1
    33     2    29    1
    34     3    30    1
    35     4    31    1
    36     5    32    1
    37     6    33    1
    38     7    34    1
    39     8    35    1
    40     9    36    1
    41    19    37    1
    42    19    38    1
    43    20    39    1
    44    20    40    1
    45    21    41    1
    46    21    42    1
    47    22    43    1
    48    23    44    1
    49    24    45    1
