@<TRIPOS>MOLECULE
ChEBML29910
 39 42 0 0 0
SMALL
USER_CHARGES

@<TRIPOS>ATOM
      1 C          -4.4737   -1.2777   -0.1620 C.ar    1  LIG1       -0.0622
      2 C          -4.3370   -1.3938    1.2213 C.ar    1  LIG1       -0.0620
      3 C          -5.7386   -1.1133   -0.7266 C.ar    1  LIG1       -0.0620
      4 C          -5.4653   -1.3456    2.0400 C.ar    1  LIG1       -0.0586
      5 C          -6.8668   -1.0651    0.0922 C.ar    1  LIG1       -0.0586
      6 C         -12.2130   -3.7942    1.5295 C.ar    1  LIG1       -0.0404
      7 C         -10.3757   -2.0417    2.1277 C.ar    1  LIG1       -0.0355
      8 C          -9.9834   -5.3750    0.7934 C.ar    1  LIG1       -0.0091
      9 C         -14.9241   -5.4183    1.5373 C.ar    1  LIG1        0.0608
     10 C         -15.2533   -6.8104   -0.0044 C.ar    1  LIG1        0.1342
     11 C         -10.9091   -3.2780    1.6672 C.ar    1  LIG1       -0.0018
     12 C         -12.3850   -5.0893    1.0275 C.ar    1  LIG1        0.0379
     13 C          -6.7302   -1.1813    1.4755 C.ar    1  LIG1       -0.0423
     14 C          -9.8266   -4.0787    1.2967 C.ar    1  LIG1        0.0401
     15 C         -11.2860   -5.8658    0.6658 C.ar    1  LIG1        0.0864
     16 C         -13.7283   -5.6054    0.8895 C.ar    1  LIG1        0.1115
     17 C          -9.0052   -2.1147    2.0301 C.ar    1  LIG1        0.0121
     18 C         -11.4700   -8.1917    1.1259 C.3     1  LIG1        0.0423
     19 C          -7.9621   -1.1289    2.3685 C.3     1  LIG1        0.0106
     20 N         -15.8975   -6.1929    0.9599 N.ar    1  LIG1       -0.2367
     21 N          -8.6835   -3.3469    1.5277 N.ar    1  LIG1       -0.3174
     22 O         -13.9308   -6.5064   -0.1120 O.2     1  LIG1       -0.2962
     23 O         -11.4518   -7.1306    0.1760 O.3     1  LIG1       -0.3485
     24 H          -3.5949   -1.3138   -0.7993 H       1  LIG1        0.0622
     25 H          -3.3520   -1.5207    1.6610 H       1  LIG1        0.0623
     26 H          -5.8452   -1.0218   -1.8034 H       1  LIG1        0.0623
     27 H          -5.3493   -1.4372    3.1167 H       1  LIG1        0.0625
     28 H          -7.8484   -0.9369   -0.3565 H       1  LIG1        0.0625
     29 H         -13.0683   -3.1852    1.8126 H       1  LIG1        0.0638
     30 H         -10.9364   -1.1914    2.4922 H       1  LIG1        0.0646
     31 H          -9.1237   -5.9761    0.5149 H       1  LIG1        0.0670
     32 H         -15.1379   -4.7758    2.3790 H       1  LIG1        0.0869
     33 H         -15.6429   -7.5233   -0.7154 H       1  LIG1        0.1125
     34 H         -11.6081   -9.1436    0.6073 H       1  LIG1        0.0535
     35 H         -12.2836   -8.0310    1.8377 H       1  LIG1        0.0535
     36 H         -10.5177   -8.2060    1.6613 H       1  LIG1        0.0535
     37 H          -7.6283   -1.2397    3.4215 H       1  LIG1        0.0379
     38 H          -8.3619   -0.0935    2.3430 H       1  LIG1        0.0379
     39 H          -7.7438   -3.6759    1.3537 H       1  LIG1        0.1525
@<TRIPOS>BOND
     1     1     2   ar
     2     1     3   ar
     3     2     4   ar
     4     3     5   ar
     5     4    13   ar
     6     5    13   ar
     7     6    11   ar
     8     6    12   ar
     9     7    11   ar
    10     7    17   ar
    11     8    14   ar
    12     8    15   ar
    13     9    16   ar
    14     9    20   ar
    15    10    20   ar
    16    10    22   ar
    17    11    14   ar
    18    12    15   ar
    19    12    16    1
    20    13    19    1
    21    14    21   ar
    22    15    23    1
    23    16    22   ar
    24    17    19    1
    25    17    21   ar
    26    18    23    1
    27     1    24    1
    28     2    25    1
    29     3    26    1
    30     4    27    1
    31     5    28    1
    32     6    29    1
    33     7    30    1
    34     8    31    1
    35     9    32    1
    36    10    33    1
    37    18    34    1
    38    18    35    1
    39    18    36    1
    40    19    37    1
    41    19    38    1
    42    21    39    1
