@<TRIPOS>MOLECULE
ChEBML163225
 40 42 0 0 0
SMALL
USER_CHARGES

@<TRIPOS>ATOM
      1 CZ         -1.8183    1.0882   -2.5540 C.ar    2  PHE2       -0.0622
      2 CE1        -3.0419    1.7572   -2.5237 C.ar    2  PHE2       -0.0620
      3 CE2        -1.7611   -0.2744   -2.2609 C.ar    2  PHE2       -0.0620
      4 CD1        -4.2081    1.0639   -2.2001 C.ar    2  PHE2       -0.0590
      5 CD2        -2.9273   -0.9678   -1.9373 C.ar    2  PHE2       -0.0590
      6 C         -11.3207   -4.7886    0.4555 C.ar    1  UNK1       -0.0387
      7 C         -12.5205   -5.1317    1.0852 C.ar    1  UNK1       -0.0416
      8 C         -12.2062   -3.3984    2.7567 C.ar    1  UNK1       -0.0343
      9 C         -10.0021   -2.0486    2.4046 C.ar    1  UNK1       -0.0262
     10 C         -10.9931   -3.0347    2.1392 C.ar    1  UNK1       -0.0007
     11 CG         -4.1508   -0.2986   -1.9068 C.ar    2  PHE2       -0.0461
     12 C         -10.5791   -3.7368    1.0051 C.ar    1  UNK1        0.0379
     13 C         -12.9585   -4.4486    2.2181 C.ar    1  UNK1        0.0413
     14 C          -9.0237   -2.1691    1.4448 C.ar    1  UNK1        0.0945
     15 C          -7.8282   -1.4011    1.2960 C.2     1  UNK1        0.2575
     16 CB         -5.4133   -1.0500   -1.5560 C.3     2  PHE2       -0.0071
     17 C          -4.5866   -1.7222    0.7285 C.3     2  PHE2        0.0618
     18 CA         -5.7174   -1.0471   -0.0496 C.3     2  PHE2        0.0499
     19 N          -9.3808   -3.1897    0.6050 N.ar    1  UNK1       -0.3101
     20 N          -6.9701   -1.7156    0.2203 N.am    2  PHE2       -0.3048
     21 O          -7.5307   -0.4856    2.1043 O.2     1  UNK1       -0.2704
     22 O          -4.4690   -3.0779    0.3117 O.3     2  PHE2       -0.3944
     23 CL        -14.4440   -4.8997    2.9654 Cl      1  UNK1       -0.0843
     24 HZ         -0.9105    1.6279   -2.8074 H       2  PHE2        0.0622
     25 HE1        -3.0867    2.8179   -2.7530 H       2  PHE2        0.0623
     26 HE2        -0.8088   -0.7959   -2.2855 H       2  PHE2        0.0623
     27 HD1        -5.1569    1.5935   -2.1786 H       2  PHE2        0.0625
     28 HD2        -2.8730   -2.0292   -1.7101 H       2  PHE2        0.0625
     29 H         -10.9806   -5.3216   -0.4260 H       1  UNK1        0.0643
     30 H         -13.1101   -5.9474    0.6720 H       1  UNK1        0.0639
     31 H         -12.5462   -2.8651    3.6406 H       1  UNK1        0.0645
     32 H         -10.0081   -1.3293    3.2128 H       1  UNK1        0.0651
     33 HB1        -6.2596   -0.6278   -2.1141 H       2  PHE2        0.0336
     34 HB2        -5.3027   -2.0818   -1.9148 H       2  PHE2        0.0336
     35 H1         -4.8009   -1.7215    1.8022 H       2  PHE2        0.0583
     36 H2         -3.6273   -1.2217    0.5579 H       2  PHE2        0.0583
     37 HA         -5.8428   -0.0220    0.3193 H       2  PHE2        0.0531
     38 H          -8.8447   -3.4998   -0.1939 H       1  UNK1        0.1529
     39 H          -7.2111   -2.5017   -0.3743 H       2  PHE2        0.1501
     40 H          -3.7445   -3.4658    0.8275 H       2  PHE2        0.2101
@<TRIPOS>BOND
     1     1     2   ar
     2     1     3   ar
     3     2     4   ar
     4     3     5   ar
     5     4    11   ar
     6     5    11   ar
     7     6     7   ar
     8     6    12   ar
     9     7    13   ar
    10     8    10   ar
    11     8    13   ar
    12     9    10   ar
    13     9    14   ar
    14    10    12   ar
    15    11    16    1
    16    12    19   ar
    17    13    23    1
    18    14    15    1
    19    14    19   ar
    20    15    20   am
    21    15    21    2
    22    16    18    1
    23    17    18    1
    24    17    22    1
    25    18    20    1
    26     1    24    1
    27     2    25    1
    28     3    26    1
    29     4    27    1
    30     5    28    1
    31     6    29    1
    32     7    30    1
    33     8    31    1
    34     9    32    1
    35    16    33    1
    36    16    34    1
    37    17    35    1
    38    17    36    1
    39    18    37    1
    40    19    38    1
    41    20    39    1
    42    22    40    1
