@<TRIPOS>MOLECULE
ChEBML357719
 47 50 0 0 0
SMALL
USER_CHARGES

@<TRIPOS>ATOM
      1 C          -0.2334    1.0654   -2.5226 C.ar    1  LIG1       -0.0622
      2 C          -0.9213    1.8258   -1.5771 C.ar    1  LIG1       -0.0620
      3 C          -0.9335    0.2074   -3.3708 C.ar    1  LIG1       -0.0620
      4 C          -2.3094    1.7282   -1.4797 C.ar    1  LIG1       -0.0590
      5 C          -2.3216    0.1098   -3.2735 C.ar    1  LIG1       -0.0590
      6 C         -10.2288   -5.3464    0.8093 C.ar    1  LIG1       -0.0367
      7 C         -11.5874   -5.6415    0.9633 C.ar    1  LIG1       -0.0393
      8 C         -12.0482   -3.4130    1.8293 C.ar    1  LIG1       -0.0135
      9 C          -3.0096    0.8702   -2.3279 C.ar    1  LIG1       -0.0477
     10 C         -10.6866   -3.0995    1.6813 C.ar    1  LIG1        0.0886
     11 C          -9.8186   -4.0652    1.1794 C.ar    1  LIG1        0.0578
     12 C         -12.4827   -4.6934    1.4640 C.ar    1  LIG1        0.0256
     13 C          -8.7613   -2.1770    1.6392 C.ar    1  LIG1        0.1863
     14 C          -7.7194   -1.2026    1.7819 C.2     1  LIG1        0.2790
     15 C          -6.3639   -0.7899   -1.5181 C.3     1  LIG1       -0.0341
     16 C          -4.7958    0.1701    0.2113 C.3     1  LIG1       -0.0341
     17 C          -6.8264   -1.8186   -0.4879 C.3     1  LIG1        0.0148
     18 C          -5.2880   -0.8859    1.1978 C.3     1  LIG1        0.0148
     19 C          -4.9260   -0.3242   -1.2385 C.3     1  LIG1       -0.0344
     20 C          -4.5062    0.7644   -2.2232 C.3     1  LIG1       -0.0249
     21 N         -10.0119   -1.9333    1.9610 N.ar    1  LIG1       -0.2261
     22 N          -8.5942   -3.4478    1.1635 N.ar    1  LIG1       -0.2934
     23 N          -6.6596   -1.2986    0.8703 N.am    1  LIG1       -0.2953
     24 N         -13.8484   -5.0289    1.6029 N.pl3   1  LIG1       -0.3582
     25 O          -7.7818   -0.3470    2.6628 O.2     1  LIG1       -0.2683
     26 H           0.8472    1.1424   -2.5992 H       1  LIG1        0.0622
     27 H          -0.3766    2.4948   -0.9173 H       1  LIG1        0.0623
     28 H          -0.3984   -0.3840   -4.1079 H       1  LIG1        0.0623
     29 H          -2.8371    2.3244   -0.7399 H       1  LIG1        0.0625
     30 H          -2.8586   -0.5614   -3.9384 H       1  LIG1        0.0625
     31 H          -9.5320   -6.0805    0.4205 H       1  LIG1        0.0644
     32 H         -11.9409   -6.6319    0.6837 H       1  LIG1        0.0643
     33 H         -12.7438   -2.6754    2.2184 H       1  LIG1        0.0666
     34 H          -6.4313   -1.2227   -2.5230 H       1  LIG1        0.0285
     35 H          -7.0411    0.0738   -1.4923 H       1  LIG1        0.0285
     36 H          -5.3827    1.0885    0.3423 H       1  LIG1        0.0285
     37 H          -3.7513    0.4192    0.4318 H       1  LIG1        0.0285
     38 H          -7.8703   -2.0879   -0.6772 H       1  LIG1        0.0469
     39 H          -6.2309   -2.7359   -0.5653 H       1  LIG1        0.0469
     40 H          -4.6572   -1.7815    1.1475 H       1  LIG1        0.0469
     41 H          -5.2145   -0.4952    2.2156 H       1  LIG1        0.0469
     42 H          -4.2530   -1.1813   -1.3735 H       1  LIG1        0.0307
     43 H          -4.9273    1.7242   -1.9070 H       1  LIG1        0.0319
     44 H          -4.9351    0.5505   -3.2077 H       1  LIG1        0.0319
     45 H          -7.7243   -3.8612    0.8548 H       1  LIG1        0.1545
     46 H         -14.1612   -5.9261    1.2957 H       1  LIG1        0.1426
     47 H         -14.4897   -4.3307    1.9170 H       1  LIG1        0.1426
@<TRIPOS>BOND
     1     1     2   ar
     2     1     3   ar
     3     2     4   ar
     4     3     5   ar
     5     4     9   ar
     6     5     9   ar
     7     6     7   ar
     8     6    11   ar
     9     7    12   ar
    10     8    10   ar
    11     8    12   ar
    12     9    20    1
    13    10    11   ar
    14    10    21   ar
    15    11    22   ar
    16    12    24    1
    17    13    14    1
    18    13    21   ar
    19    13    22   ar
    20    14    23   am
    21    14    25    2
    22    15    17    1
    23    15    19    1
    24    16    18    1
    25    16    19    1
    26    17    23    1
    27    18    23    1
    28    19    20    1
    29     1    26    1
    30     2    27    1
    31     3    28    1
    32     4    29    1
    33     5    30    1
    34     6    31    1
    35     7    32    1
    36     8    33    1
    37    15    34    1
    38    15    35    1
    39    16    36    1
    40    16    37    1
    41    17    38    1
    42    17    39    1
    43    18    40    1
    44    18    41    1
    45    19    42    1
    46    20    43    1
    47    20    44    1
    48    22    45    1
    49    24    46    1
    50    24    47    1
