@<TRIPOS>MOLECULE
ChEBML350388
 56 58 0 0 0
SMALL
USER_CHARGES

@<TRIPOS>ATOM
      1 C         -10.3444   -2.3143    2.7914 C.ar    1  LIG1       -0.0561
      2 C          -9.3089   -1.6179    2.1693 C.ar    1  LIG1       -0.0315
      3 C          -9.1633   -3.3473    0.4979 C.ar    1  LIG1       -0.0282
      4 C         -10.8071   -3.5359    2.2726 C.ar    1  LIG1       -0.0429
      5 C         -10.2091   -4.0591    1.1107 C.ar    1  LIG1       -0.0405
      6 C          -8.7182   -2.1347    1.0224 C.ar    1  LIG1        0.0753
      7 C         -11.9239   -4.2597    2.9862 C.3     1  LIG1       -0.0105
      8 C         -10.6511   -5.3733    0.5122 C.3     1  LIG1       -0.0104
      9 C          -1.9045   -0.1854   -3.2144 C.3     1  LIG1       -0.0434
     10 C          -2.1403   -1.2673   -2.1659 C.3     1  LIG1       -0.0134
     11 C          -2.4482    1.1615   -2.7498 C.3     1  LIG1       -0.0134
     12 C         -13.1722   -4.4338    2.1241 C.3     1  LIG1        0.0288
     13 C         -12.1086   -5.3644    0.0568 C.3     1  LIG1        0.0288
     14 C          -3.6054   -1.3514   -1.7623 C.3     1  LIG1       -0.0344
     15 C          -3.9120    1.0690   -2.3438 C.3     1  LIG1       -0.0344
     16 C         -14.5340   -7.5874    2.1340 C.3     1  LIG1        0.0224
     17 C          -5.4680   -0.6255    0.6448 C.3     1  LIG1        0.0104
     18 C          -5.4815   -0.0486   -0.7605 C.3     1  LIG1       -0.0321
     19 C          -6.8665   -0.6589    1.2440 C.3     1  LIG1        0.0583
     20 N         -13.0260   -5.6064    1.2105 N.3     1  LIG1       -0.2807
     21 N          -4.0930    0.0027   -1.2780 N.4     1  LIG1        0.2461
     22 O         -14.3079   -7.1206   -0.4269 O.2     1  LIG1       -0.4815
     23 O         -15.5870   -5.4786    1.0061 O.2     1  LIG1       -0.4815
     24 O          -7.7060   -1.4595    0.4132 O.3     1  LIG1       -0.3458
     25 S         -14.4956   -6.4047    0.8134 S.O2    1  LIG1       -0.1975
     26 H         -10.7910   -1.8935    3.6893 H       1  LIG1        0.0626
     27 H          -8.9682   -0.6745    2.5865 H       1  LIG1        0.0650
     28 H          -8.6893   -3.7403   -0.3993 H       1  LIG1        0.0653
     29 H         -11.5530   -5.2259    3.3507 H       1  LIG1        0.0333
     30 H         -12.2082   -3.6874    3.8786 H       1  LIG1        0.0333
     31 H         -10.0265   -5.5963   -0.3626 H       1  LIG1        0.0333
     32 H         -10.4633   -6.1793    1.2324 H       1  LIG1        0.0333
     33 H          -0.8328   -0.1002   -3.4257 H       1  LIG1        0.0271
     34 H          -2.3947   -0.4734   -4.1525 H       1  LIG1        0.0271
     35 H          -1.8104   -2.2364   -2.5570 H       1  LIG1        0.0320
     36 H          -1.5269   -1.0558   -1.2811 H       1  LIG1        0.0320
     37 H          -1.8533    1.5213   -1.9010 H       1  LIG1        0.0320
     38 H          -2.3365    1.8996   -3.5519 H       1  LIG1        0.0320
     39 H         -14.0143   -4.6296    2.7992 H       1  LIG1        0.0485
     40 H         -13.4096   -3.5299    1.5512 H       1  LIG1        0.0485
     41 H         -12.3767   -4.4338   -0.4563 H       1  LIG1        0.0485
     42 H         -12.2354   -6.1863   -0.6586 H       1  LIG1        0.0485
     43 H          -4.2439   -1.6482   -2.6019 H       1  LIG1        0.0814
     44 H          -3.7372   -2.0554   -0.9341 H       1  LIG1        0.0814
     45 H          -4.2541    2.0155   -1.9128 H       1  LIG1        0.0814
     46 H          -4.5533    0.7975   -3.1897 H       1  LIG1        0.0814
     47 H         -15.4342   -8.1946    2.0264 H       1  LIG1        0.0442
     48 H         -13.6415   -8.2108    2.0639 H       1  LIG1        0.0442
     49 H         -14.5491   -7.0456    3.0809 H       1  LIG1        0.0442
     50 H          -4.8082   -0.0372    1.2953 H       1  LIG1        0.0344
     51 H          -5.0510   -1.6406    0.6395 H       1  LIG1        0.0344
     52 H          -5.8653    0.9757   -0.7796 H       1  LIG1        0.0815
     53 H          -6.0557   -0.6706   -1.4534 H       1  LIG1        0.0815
     54 H          -7.2911    0.3484    1.3009 H       1  LIG1        0.0574
     55 H          -6.8508   -1.0963    2.2475 H       1  LIG1        0.0574
     56 H          -3.4766    0.2699   -0.4898 H       1  LIG1        0.2003
@<TRIPOS>BOND
     1     1     2   ar
     2     1     4   ar
     3     2     6   ar
     4     3     5   ar
     5     3     6   ar
     6     4     5   ar
     7     4     7    1
     8     5     8    1
     9     6    24    1
    10     7    12    1
    11     8    13    1
    12     9    10    1
    13     9    11    1
    14    10    14    1
    15    11    15    1
    16    12    20    1
    17    13    20    1
    18    14    21    1
    19    15    21    1
    20    16    25    1
    21    17    18    1
    22    17    19    1
    23    18    21    1
    24    19    24    1
    25    20    25    1
    26    22    25    2
    27    23    25    2
    28     1    26    1
    29     2    27    1
    30     3    28    1
    31     7    29    1
    32     7    30    1
    33     8    31    1
    34     8    32    1
    35     9    33    1
    36     9    34    1
    37    10    35    1
    38    10    36    1
    39    11    37    1
    40    11    38    1
    41    12    39    1
    42    12    40    1
    43    13    41    1
    44    13    42    1
    45    14    43    1
    46    14    44    1
    47    15    45    1
    48    15    46    1
    49    16    47    1
    50    16    48    1
    51    16    49    1
    52    17    50    1
    53    17    51    1
    54    18    52    1
    55    18    53    1
    56    19    54    1
    57    19    55    1
    58    21    56    1
