@<TRIPOS>MOLECULE
ChEBML52515
 52 55 0 0 0
SMALL
USER_CHARGES

@<TRIPOS>ATOM
      1 C          -2.3366    0.9934   -3.4551 C.ar    1  LIG1       -0.0418
      2 C         -12.0876   -3.4813    1.9737 C.ar    1  LIG1       -0.0501
      3 C          -1.8013   -0.2274   -3.0670 C.ar    1  LIG1       -0.0360
      4 C         -12.5681   -4.6332    1.4239 C.ar    1  LIG1       -0.0256
      5 C          -9.9637   -2.0243    2.2108 C.ar    1  LIG1       -0.0262
      6 C         -10.4137   -5.1293    0.4726 C.ar    1  LIG1       -0.0043
      7 C          -3.4826    1.4563   -2.8411 C.ar    1  LIG1        0.0292
      8 C         -10.7460   -3.1239    1.7833 C.ar    1  LIG1       -0.0020
      9 C          -9.9022   -3.9584    1.0241 C.ar    1  LIG1        0.0407
     10 C          -2.4450   -0.9436   -2.0665 C.ar    1  LIG1        0.0672
     11 C         -11.7373   -5.4602    0.6737 C.ar    1  LIG1        0.1246
     12 C          -8.7061   -2.1974    1.7259 C.ar    1  LIG1        0.0947
     13 C          -3.6043   -0.4143   -1.4941 C.ar    1  LIG1        0.1412
     14 C          -7.5773   -1.2801    1.9376 C.2     1  LIG1        0.2599
     15 C          -4.4503   -0.1928    0.6280 C.3     1  LIG1        0.0288
     16 C          -5.5972   -1.4479   -1.0165 C.3     1  LIG1        0.0288
     17 C          -5.1543   -0.9143    1.7818 C.3     1  LIG1        0.0303
     18 C          -6.3769   -2.2521    0.0289 C.3     1  LIG1        0.0303
     19 C           0.4989   -2.2268   -1.7683 C.3     1  LIG1       -0.0470
     20 C          -0.8385   -4.3038   -2.1417 C.3     1  LIG1       -0.0470
     21 C          -0.8059   -2.7868   -2.3380 C.3     1  LIG1        0.0142
     22 N          -4.0758    0.7557   -1.8919 N.ar    1  LIG1       -0.2394
     23 N          -8.6594   -3.3708    0.9968 N.ar    1  LIG1       -0.3100
     24 N          -4.2657   -1.1216   -0.4929 N.pl3   1  LIG1       -0.3112
     25 N          -6.4184   -1.4738    1.2772 N.am    1  LIG1       -0.2936
     26 N          -1.9430   -2.1797   -1.6419 N.pl3   1  LIG1       -0.3393
     27 O          -7.6890   -0.3458    2.7089 O.2     1  LIG1       -0.2701
     28 F         -12.2319   -6.5976    0.1379 F       1  LIG1       -0.2069
     29 H          -1.8604    1.5757   -4.2301 H       1  LIG1        0.0639
     30 H         -12.7395   -2.8462    2.5549 H       1  LIG1        0.0631
     31 H          -0.9052   -0.6108   -3.5321 H       1  LIG1        0.0644
     32 H         -13.6025   -4.9062    1.5723 H       1  LIG1        0.0653
     33 H         -10.3051   -1.1964    2.8145 H       1  LIG1        0.0651
     34 H          -9.7759   -5.7771   -0.1106 H       1  LIG1        0.0673
     35 H          -3.9005    2.4059   -3.1412 H       1  LIG1        0.0840
     36 H          -3.4782    0.1677    0.9645 H       1  LIG1        0.0485
     37 H          -5.0580    0.6518    0.3033 H       1  LIG1        0.0485
     38 H          -6.1349   -0.5266   -1.2407 H       1  LIG1        0.0485
     39 H          -5.4947   -2.0387   -1.9266 H       1  LIG1        0.0485
     40 H          -4.5195   -1.7185    2.1537 H       1  LIG1        0.0486
     41 H          -5.3606   -0.2073    2.5853 H       1  LIG1        0.0486
     42 H          -5.8775   -3.2045    0.2066 H       1  LIG1        0.0486
     43 H          -7.3917   -2.4298   -0.3269 H       1  LIG1        0.0486
     44 H           1.3450   -2.6784   -2.2862 H       1  LIG1        0.0249
     45 H           0.5222   -1.1460   -1.9081 H       1  LIG1        0.0249
     46 H           0.5592   -2.4569   -0.7045 H       1  LIG1        0.0249
     47 H          -0.7783   -4.5339   -1.0780 H       1  LIG1        0.0249
     48 H          -1.7681   -4.7028   -2.5476 H       1  LIG1        0.0249
     49 H           0.0075   -4.7555   -2.6596 H       1  LIG1        0.0249
     50 H          -0.8662   -2.5567   -3.4018 H       1  LIG1        0.0497
     51 H          -7.8781   -3.7227    0.5421 H       1  LIG1        0.1529
     52 H          -2.3482   -2.6342   -0.8867 H       1  LIG1        0.1469
@<TRIPOS>BOND
     1     1     3   ar
     2     1     7   ar
     3     2     4   ar
     4     2     8   ar
     5     3    10   ar
     6     4    11   ar
     7     5     8   ar
     8     5    12   ar
     9     6     9   ar
    10     6    11   ar
    11     7    22   ar
    12     8     9   ar
    13     9    23   ar
    14    10    13   ar
    15    10    26    1
    16    11    28    1
    17    12    14    1
    18    12    23   ar
    19    13    22   ar
    20    13    24    1
    21    14    25   am
    22    14    27    2
    23    15    17    1
    24    15    24    1
    25    16    18    1
    26    16    24    1
    27    17    25    1
    28    18    25    1
    29    19    21    1
    30    20    21    1
    31    21    26    1
    32     1    29    1
    33     2    30    1
    34     3    31    1
    35     4    32    1
    36     5    33    1
    37     6    34    1
    38     7    35    1
    39    15    36    1
    40    15    37    1
    41    16    38    1
    42    16    39    1
    43    17    40    1
    44    17    41    1
    45    18    42    1
    46    18    43    1
    47    19    44    1
    48    19    45    1
    49    19    46    1
    50    20    47    1
    51    20    48    1
    52    20    49    1
    53    21    50    1
    54    23    51    1
    55    26    52    1
