@<TRIPOS>MOLECULE
ChEBML300444
 50 52 0 0 0
SMALL
USER_CHARGES

@<TRIPOS>ATOM
      1 C          -9.9419   -5.3695    0.7056 C.ar    1  LIG1       -0.0387
      2 C         -11.2822   -5.7665    0.7006 C.ar    1  LIG1       -0.0416
      3 C         -11.9966   -3.5670    1.4414 C.ar    1  LIG1       -0.0343
      4 C         -10.0014   -1.9200    1.7746 C.ar    1  LIG1       -0.0262
      5 C         -10.6526   -3.1441    1.4541 C.ar    1  LIG1       -0.0007
      6 C          -9.6583   -4.0532    1.0867 C.ar    1  LIG1        0.0379
      7 C         -12.2952   -4.8808    1.0623 C.ar    1  LIG1        0.0413
      8 C          -8.6496   -2.1064    1.5993 C.ar    1  LIG1        0.0945
      9 C          -7.5498   -1.1292    1.8057 C.2     1  LIG1        0.2576
     10 C          -4.5899   -0.3357   -0.2522 C.2     1  LIG1        0.2319
     11 C          -1.7995   -0.2637   -3.5086 C.3     1  LIG1       -0.0515
     12 C          -2.6357    0.9752   -3.8409 C.3     1  LIG1       -0.0515
     13 C          -2.1729   -0.6539   -2.0809 C.3     1  LIG1       -0.0344
     14 C          -3.4686    1.2681   -2.5957 C.3     1  LIG1       -0.0344
     15 C          -2.6524    0.6547   -1.4644 C.3     1  LIG1        0.0254
     16 C          -0.5300    0.0234    3.5311 C.3     1  LIG1        0.0356
     17 C          -5.2724   -0.4423    1.1000 C.3     1  LIG1        0.0887
     18 C          -2.9113    1.1181    0.9424 C.3     1  LIG1        0.0380
     19 C          -1.9532    0.1917    1.6685 C.3     1  LIG1        0.0620
     20 N          -8.4525   -3.3961    1.1840 N.ar    1  LIG1       -0.3101
     21 N          -6.4255   -1.2909    1.0021 N.am    1  LIG1       -0.3013
     22 N          -3.4165    0.4549   -0.2673 N.am    1  LIG1       -0.2952
     23 O          -7.6720   -0.2612    2.6660 O.2     1  LIG1       -0.2704
     24 O          -5.0528   -0.9116   -1.2404 O.2     1  LIG1       -0.2756
     25 O          -1.4396    0.8508    2.8190 O.3     1  LIG1       -0.3830
     26 CL        -13.9359   -5.4068    1.0421 Cl      1  LIG1       -0.0843
     27 H          -9.1540   -6.0602    0.4244 H       1  LIG1        0.0643
     28 H         -11.5213   -6.7865    0.4074 H       1  LIG1        0.0639
     29 H         -12.7857   -2.8752    1.7242 H       1  LIG1        0.0645
     30 H         -10.4754   -1.0029    2.0986 H       1  LIG1        0.0651
     31 H          -1.9894   -1.0840   -4.2081 H       1  LIG1        0.0267
     32 H          -0.7328   -0.0185   -3.5704 H       1  LIG1        0.0267
     33 H          -1.9738    1.8197   -4.0651 H       1  LIG1        0.0267
     34 H          -3.2719    0.8147   -4.7170 H       1  LIG1        0.0267
     35 H          -2.9779   -1.3998   -2.0947 H       1  LIG1        0.0285
     36 H          -1.3294   -1.0886   -1.5357 H       1  LIG1        0.0285
     37 H          -3.6407    2.3398   -2.4545 H       1  LIG1        0.0285
     38 H          -4.4499    0.7843   -2.6805 H       1  LIG1        0.0285
     39 H          -1.8007    1.2981   -1.2138 H       1  LIG1        0.0506
     40 H          -0.1563    0.5604    4.4064 H       1  LIG1        0.0529
     41 H           0.3012   -0.2526    2.8774 H       1  LIG1        0.0529
     42 H          -1.0510   -0.8803    3.8559 H       1  LIG1        0.0529
     43 H          -4.5953   -0.8880    1.8332 H       1  LIG1        0.0567
     44 H          -5.6145    0.5410    1.4327 H       1  LIG1        0.0567
     45 H          -3.7669    1.3782    1.5737 H       1  LIG1        0.0493
     46 H          -2.3978    2.0357    0.6393 H       1  LIG1        0.0493
     47 H          -1.1094   -0.0593    1.0182 H       1  LIG1        0.0583
     48 H          -2.4481   -0.7326    1.9838 H       1  LIG1        0.0583
     49 H          -7.5533   -3.8094    0.9779 H       1  LIG1        0.1529
     50 H          -6.3791   -2.0771    0.3548 H       1  LIG1        0.1503
@<TRIPOS>BOND
     1     1     2   ar
     2     1     6   ar
     3     2     7   ar
     4     3     5   ar
     5     3     7   ar
     6     4     5   ar
     7     4     8   ar
     8     5     6   ar
     9     6    20   ar
    10     7    26    1
    11     8     9    1
    12     8    20   ar
    13     9    21   am
    14     9    23    2
    15    10    17    1
    16    10    22   am
    17    10    24    2
    18    11    12    1
    19    11    13    1
    20    12    14    1
    21    13    15    1
    22    14    15    1
    23    15    22    1
    24    16    25    1
    25    17    21    1
    26    18    19    1
    27    18    22    1
    28    19    25    1
    29     1    27    1
    30     2    28    1
    31     3    29    1
    32     4    30    1
    33    11    31    1
    34    11    32    1
    35    12    33    1
    36    12    34    1
    37    13    35    1
    38    13    36    1
    39    14    37    1
    40    14    38    1
    41    15    39    1
    42    16    40    1
    43    16    41    1
    44    16    42    1
    45    17    43    1
    46    17    44    1
    47    18    45    1
    48    18    46    1
    49    19    47    1
    50    19    48    1
    51    20    49    1
    52    21    50    1
