@<TRIPOS>MOLECULE
ChEBML348872
 32 35 0 0 0
SMALL
USER_CHARGES

@<TRIPOS>ATOM
      1 C         -12.4109   -4.8115    1.2755 C.ar    1  LIG1       -0.0615
      2 C          -2.9345   -1.2121   -2.1464 C.ar    1  LIG1       -0.0615
      3 C         -11.4502   -5.6458    0.7072 C.ar    1  LIG1       -0.0603
      4 C          -2.9047    0.1453   -1.8327 C.ar    1  LIG1       -0.0603
      5 C         -12.0702   -3.5323    1.7299 C.ar    1  LIG1       -0.0530
      6 C          -3.8933   -2.0579   -1.5771 C.ar    1  LIG1       -0.0530
      7 C         -10.1221   -5.2302    0.5749 C.ar    1  LIG1       -0.0402
      8 C          -3.8290    0.7000   -0.9429 C.ar    1  LIG1       -0.0402
      9 C         -10.0546   -1.8913    1.9504 C.ar    1  LIG1       -0.0276
     10 C          -5.9181   -2.0678    0.0673 C.ar    1  LIG1       -0.0276
     11 C         -10.7375   -3.0916    1.6072 C.ar    1  LIG1       -0.0022
     12 C          -4.8356   -1.5215   -0.6772 C.ar    1  LIG1       -0.0022
     13 C          -9.7961   -3.9491    1.0338 C.ar    1  LIG1        0.0378
     14 C          -4.7818   -0.1576   -0.3814 C.ar    1  LIG1        0.0378
     15 C          -8.7364   -2.0405    1.5856 C.ar    1  LIG1        0.0811
     16 C          -6.4897   -1.0443    0.7875 C.ar    1  LIG1        0.0811
     17 C          -7.6653   -1.1060    1.7301 C.2     1  LIG1        0.2206
     18 N          -8.5903   -3.2847    1.0335 N.ar    1  LIG1       -0.3112
     19 N          -5.7976    0.1039    0.5100 N.ar    1  LIG1       -0.3112
     20 O          -7.6498   -0.2738    2.6668 O.2     1  LIG1       -0.2856
     21 H         -13.4374   -5.1567    1.3667 H       1  LIG1        0.0623
     22 H          -2.2056   -1.6201   -2.8417 H       1  LIG1        0.0623
     23 H         -11.7367   -6.6354    0.3612 H       1  LIG1        0.0623
     24 H          -2.1511    0.7837   -2.2862 H       1  LIG1        0.0623
     25 H         -12.8293   -2.8920    2.1706 H       1  LIG1        0.0629
     26 H          -3.9056   -3.1143   -1.8308 H       1  LIG1        0.0629
     27 H          -9.3743   -5.8800    0.1330 H       1  LIG1        0.0642
     28 H          -3.8053    1.7566   -0.6985 H       1  LIG1        0.0642
     29 H         -10.4861   -1.0143    2.4145 H       1  LIG1        0.0651
     30 H          -6.2408   -3.1006    0.0725 H       1  LIG1        0.0651
     31 H          -7.7239   -3.6643    0.6771 H       1  LIG1        0.1529
     32 H          -5.9998    1.0135    0.9020 H       1  LIG1        0.1529
@<TRIPOS>BOND
     1     1     3   ar
     2     1     5   ar
     3     2     4   ar
     4     2     6   ar
     5     3     7   ar
     6     4     8   ar
     7     5    11   ar
     8     6    12   ar
     9     7    13   ar
    10     8    14   ar
    11     9    11   ar
    12     9    15   ar
    13    10    12   ar
    14    10    16   ar
    15    11    13   ar
    16    12    14   ar
    17    13    18   ar
    18    14    19   ar
    19    15    17    1
    20    15    18   ar
    21    16    17    1
    22    16    19   ar
    23    17    20    2
    24     1    21    1
    25     2    22    1
    26     3    23    1
    27     4    24    1
    28     5    25    1
    29     6    26    1
    30     7    27    1
    31     8    28    1
    32     9    29    1
    33    10    30    1
    34    18    31    1
    35    19    32    1
