@<TRIPOS>MOLECULE
ChEBML38402
 41 43 0 0 0
SMALL
USER_CHARGES

@<TRIPOS>ATOM
      1 C         -10.5604   -5.2744    0.4806 C.ar    1  LIG1       -0.0524
      2 C         -10.3576   -2.0286    2.2863 C.ar    1  LIG1       -0.0526
      3 C         -11.8655   -5.5937    0.6856 C.ar    1  LIG1       -0.0401
      4 C          -9.0499   -1.7168    2.0752 C.ar    1  LIG1       -0.0418
      5 C         -12.2290   -3.5711    1.9508 C.ar    1  LIG1       -0.0328
      6 C          -8.6939   -3.7252    0.8149 C.ar    1  LIG1       -0.0346
      7 C         -10.8829   -3.2206    1.7573 C.ar    1  LIG1       -0.0164
      8 C         -10.0391   -4.0813    1.0113 C.ar    1  LIG1       -0.0165
      9 C          -5.0096   -0.0106   -1.8733 C.ar    1  LIG1       -0.0159
     10 C         -12.7058   -4.7496    1.4215 C.ar    1  LIG1        0.0331
     11 C          -8.2204   -2.5631    1.3416 C.ar    1  LIG1        0.0229
     12 C          -3.6196    0.2165   -1.8545 C.ar    1  LIG1        0.0690
     13 C          -5.2367   -0.7522   -0.7479 C.ar    1  LIG1        0.0187
     14 C         -14.7096   -5.7785    0.6572 C.2     1  LIG1        0.2128
     15 C          -6.0134    0.4578   -2.8949 C.3     1  LIG1       -0.0370
     16 C          -2.8194    0.9919   -2.8691 C.3     1  LIG1       -0.0196
     17 C         -16.1112   -6.2686    0.9147 C.3     1  LIG1        0.0130
     18 N          -3.1602   -0.3795   -0.7898 N.ar    1  LIG1       -0.1354
     19 N          -6.4535   -1.2356   -0.3040 N.pl3   1  LIG1       -0.5729
     20 N         -14.0447   -5.1042    1.6163 N.am    1  LIG1       -0.2857
     21 O         -14.1798   -5.9909   -0.4130 O.2     1  LIG1       -0.2776
     22 O          -6.2110   -1.2188    2.1416 O.2     1  LIG1       -0.5090
     23 O          -5.8522   -3.3384    0.8171 O.2     1  LIG1       -0.5090
     24 O          -4.0402   -0.9222   -0.1630 O.2     1  LIG1       -0.2361
     25 S          -6.5327   -2.1218    1.0927 S.O2    1  LIG1       -0.2950
     26 H          -9.9247   -5.9363   -0.0887 H       1  LIG1        0.0630
     27 H         -10.9888   -1.3638    2.8574 H       1  LIG1        0.0630
     28 H         -12.2599   -6.5116    0.2753 H       1  LIG1        0.0642
     29 H          -8.6490   -0.8004    2.4823 H       1  LIG1        0.0641
     30 H         -12.8843   -2.9232    2.5139 H       1  LIG1        0.0649
     31 H          -8.0388   -4.3710    0.2489 H       1  LIG1        0.0647
     32 H          -6.4011    1.4337   -2.6025 H       1  LIG1        0.0281
     33 H          -5.5309    0.5358   -3.8692 H       1  LIG1        0.0281
     34 H          -6.8342   -0.2570   -2.9522 H       1  LIG1        0.0281
     35 H          -2.4827    0.3188   -3.6576 H       1  LIG1        0.0297
     36 H          -3.4422    1.7751   -3.3013 H       1  LIG1        0.0297
     37 H          -1.9545    1.4426   -2.3824 H       1  LIG1        0.0297
     38 H         -16.0731   -7.2721    1.3386 H       1  LIG1        0.0328
     39 H         -16.6081   -5.5971    1.6148 H       1  LIG1        0.0328
     40 H         -16.6662   -6.2912   -0.0232 H       1  LIG1        0.0328
     41 H         -14.4947   -4.8647    2.4415 H       1  LIG1        0.1556
@<TRIPOS>BOND
     1     1     3   ar
     2     1     8   ar
     3     2     4   ar
     4     2     7   ar
     5     3    10   ar
     6     4    11   ar
     7     5     7   ar
     8     5    10   ar
     9     6     8   ar
    10     6    11   ar
    11     7     8   ar
    12     9    12   ar
    13     9    13   ar
    14     9    15    1
    15    10    20    1
    16    11    25    1
    17    12    16    1
    18    12    18   ar
    19    13    19    1
    20    13    24   ar
    21    14    17    1
    22    14    20   am
    23    14    21    2
    24    18    24   ar
    25    19    25    1
    26    22    25    2
    27    23    25    2
    28     1    26    1
    29     2    27    1
    30     3    28    1
    31     4    29    1
    32     5    30    1
    33     6    31    1
    34    15    32    1
    35    15    33    1
    36    15    34    1
    37    16    35    1
    38    16    36    1
    39    16    37    1
    40    17    38    1
    41    17    39    1
    42    17    40    1
    43    20    41    1
