@<TRIPOS>MOLECULE
ChEBML367227
 41 43 0 0 0
SMALL
USER_CHARGES

@<TRIPOS>ATOM
      1 C         -13.8278   -5.1716    1.4428 C.1     1  LIG1        0.0998
      2 C          -3.4652    1.2060   -2.7443 C.ar    1  LIG1       -0.0622
      3 C          -4.8544    1.1982   -2.8695 C.ar    1  LIG1       -0.0611
      4 C          -2.8315    0.2529   -1.9469 C.ar    1  LIG1       -0.0611
      5 C          -5.6098    0.2374   -2.1973 C.ar    1  LIG1       -0.0486
      6 C          -3.5869   -0.7079   -1.2748 C.ar    1  LIG1       -0.0486
      7 C         -12.0266   -3.5907    1.8590 C.ar    1  LIG1       -0.0346
      8 C          -9.9192   -2.0815    2.1505 C.ar    1  LIG1       -0.0328
      9 C         -10.2289   -5.2361    0.4191 C.ar    1  LIG1       -0.0266
     10 C         -12.4557   -4.7928    1.2846 C.ar    1  LIG1        0.0649
     11 C         -10.6801   -3.2018    1.7139 C.ar    1  LIG1       -0.0013
     12 C         -11.5690   -5.6012    0.5762 C.ar    1  LIG1        0.0751
     13 C          -9.8141   -4.0319    0.9988 C.ar    1  LIG1        0.0382
     14 C          -4.9761   -0.7157   -1.4000 C.ar    1  LIG1        0.0073
     15 C          -8.6299   -2.2499    1.7007 C.ar    1  LIG1        0.0404
     16 C          -6.2726   -2.1371    2.6020 C.3     1  LIG1       -0.0297
     17 C          -6.9650   -0.8367    0.4823 C.3     1  LIG1        0.0322
     18 C         -12.0205   -6.8884   -0.0413 C.3     1  LIG1        0.4173
     19 C          -7.4346   -1.4022    1.8651 C.3     1  LIG1        0.1089
     20 N         -14.9396   -5.4786    1.5711 N.1     1  LIG1       -0.1923
     21 N          -8.5764   -3.4290    1.0069 N.ar    1  LIG1       -0.3154
     22 O          -7.7149   -0.2446    2.7005 O.3     1  LIG1       -0.3832
     23 F         -11.0261   -7.5529   -0.6964 F       1  LIG1       -0.1661
     24 F         -12.5139   -7.7794    0.8654 F       1  LIG1       -0.1661
     25 F         -13.0113   -6.7048   -0.9586 F       1  LIG1       -0.1661
     26 S          -5.9322   -1.9309   -0.5491 S.3     1  LIG1       -0.1227
     27 H          -2.8775    1.9544   -3.2678 H       1  LIG1        0.0622
     28 H          -5.3482    1.9404   -3.4899 H       1  LIG1        0.0623
     29 H          -1.7497    0.2596   -1.8501 H       1  LIG1        0.0623
     30 H          -6.6915    0.2475   -2.3070 H       1  LIG1        0.0634
     31 H          -3.0750   -1.4423   -0.6577 H       1  LIG1        0.0634
     32 H         -12.7156   -2.9572    2.4125 H       1  LIG1        0.0644
     33 H         -10.2788   -1.2442    2.7337 H       1  LIG1        0.0647
     34 H          -9.5315   -5.8603   -0.1310 H       1  LIG1        0.0649
     35 H          -5.3755   -1.5223    2.7334 H       1  LIG1        0.0264
     36 H          -5.9820   -3.0567    2.0838 H       1  LIG1        0.0264
     37 H          -6.5977   -2.4067    3.6148 H       1  LIG1        0.0264
     38 H          -7.8329   -0.5485   -0.1208 H       1  LIG1        0.0418
     39 H          -6.3700    0.0677    0.6563 H       1  LIG1        0.0418
     40 H          -7.7498   -3.8054    0.5633 H       1  LIG1        0.1526
     41 H          -7.9937   -0.6114    3.5446 H       1  LIG1        0.2114
@<TRIPOS>BOND
     1     1    10    1
     2     1    20    3
     3     2     3   ar
     4     2     4   ar
     5     3     5   ar
     6     4     6   ar
     7     5    14   ar
     8     6    14   ar
     9     7    10   ar
    10     7    11   ar
    11     8    11   ar
    12     8    15   ar
    13     9    12   ar
    14     9    13   ar
    15    10    12   ar
    16    11    13   ar
    17    12    18    1
    18    13    21   ar
    19    14    26    1
    20    15    19    1
    21    15    21   ar
    22    16    19    1
    23    17    19    1
    24    17    26    1
    25    18    23    1
    26    18    24    1
    27    18    25    1
    28    19    22    1
    29     2    27    1
    30     3    28    1
    31     4    29    1
    32     5    30    1
    33     6    31    1
    34     7    32    1
    35     8    33    1
    36     9    34    1
    37    16    35    1
    38    16    36    1
    39    16    37    1
    40    17    38    1
    41    17    39    1
    42    21    40    1
    43    22    41    1
