@<TRIPOS>MOLECULE
ChEBML123092
 42 45 0 0 0
SMALL
USER_CHARGES

@<TRIPOS>ATOM
      1 C         -12.2565   -5.0471    0.7198 C.ar    1  LIG1       -0.0600
      2 C         -12.8219   -3.7753    0.6023 C.ar    1  LIG1       -0.0602
      3 C          -2.0423   -0.3413   -3.3060 C.ar    1  LIG1       -0.0573
      4 C          -2.2034    0.9898   -3.6741 C.ar    1  LIG1       -0.0437
      5 C         -10.9172   -5.2092    1.0957 C.ar    1  LIG1       -0.0344
      6 C         -12.0726   -2.6215    0.8553 C.ar    1  LIG1       -0.0385
      7 C          -2.8080   -0.8685   -2.2719 C.ar    1  LIG1       -0.0217
      8 C          -3.1362    1.7456   -2.9824 C.ar    1  LIG1        0.0290
      9 C         -10.1494   -4.0609    1.3535 C.ar    1  LIG1        0.0864
     10 C         -10.7410   -2.8071    1.2281 C.ar    1  LIG1        0.0575
     11 C          -3.7136   -0.0294   -1.6428 C.ar    1  LIG1        0.1202
     12 C          -8.6198   -2.6518    1.8375 C.ar    1  LIG1        0.1434
     13 C          -5.3141   -1.7042   -1.0046 C.3     1  LIG1        0.0523
     14 C          -5.0864    0.4181    0.2758 C.3     1  LIG1        0.0523
     15 C          -5.9020   -2.3816    0.2260 C.3     1  LIG1       -0.0176
     16 C          -5.6799   -0.2630    1.5025 C.3     1  LIG1       -0.0176
     17 C          -7.3354   -1.9815    2.2272 C.3     1  LIG1        0.0233
     18 N          -3.8982    1.2687   -1.9727 N.ar    1  LIG1       -0.2414
     19 N          -8.8319   -3.9446    1.7329 N.ar    1  LIG1       -0.2303
     20 N          -9.7396   -1.9248    1.5435 N.ar    1  LIG1       -0.2969
     21 N          -4.4680   -0.5682   -0.6159 N.pl3   1  LIG1       -0.3054
     22 N          -6.6214   -1.3544    1.0628 N.4     1  LIG1        0.2537
     23 H         -12.8648   -5.9249    0.5170 H       1  LIG1        0.0623
     24 H         -13.8641   -3.6793    0.3073 H       1  LIG1        0.0623
     25 H          -1.3205   -0.9665   -3.8232 H       1  LIG1        0.0624
     26 H          -1.6175    1.4223   -4.4769 H       1  LIG1        0.0639
     27 H         -10.4879   -6.2020    1.1850 H       1  LIG1        0.0646
     28 H         -12.5101   -1.6338    0.7656 H       1  LIG1        0.0643
     29 H          -2.6892   -1.9063   -1.9785 H       1  LIG1        0.0659
     30 H          -3.3004    2.7890   -3.2311 H       1  LIG1        0.0840
     31 H          -4.7245   -2.4421   -1.5628 H       1  LIG1        0.0524
     32 H          -6.1205   -1.3579   -1.6643 H       1  LIG1        0.0524
     33 H          -5.8698    0.9671   -0.2631 H       1  LIG1        0.0524
     34 H          -4.3399    1.1498    0.6085 H       1  LIG1        0.0524
     35 H          -6.6309   -3.1455   -0.0633 H       1  LIG1        0.0831
     36 H          -5.1245   -2.8335    0.8527 H       1  LIG1        0.0831
     37 H          -4.9055   -0.7257    2.1252 H       1  LIG1        0.0831
     38 H          -6.2545    0.4511    2.1016 H       1  LIG1        0.0831
     39 H          -7.5109   -1.1826    2.9557 H       1  LIG1        0.0899
     40 H          -6.6371   -2.6956    2.6769 H       1  LIG1        0.0899
     41 H          -9.8189   -0.9164    1.5565 H       1  LIG1        0.1542
     42 H          -7.3453   -0.9223    0.4721 H       1  LIG1        0.2009
@<TRIPOS>BOND
     1     1     2   ar
     2     1     5   ar
     3     2     6   ar
     4     3     4   ar
     5     3     7   ar
     6     4     8   ar
     7     5     9   ar
     8     6    10   ar
     9     7    11   ar
    10     8    18   ar
    11     9    10   ar
    12     9    19   ar
    13    10    20   ar
    14    11    18   ar
    15    11    21    1
    16    12    17    1
    17    12    19   ar
    18    12    20   ar
    19    13    15    1
    20    13    21    1
    21    14    16    1
    22    14    21    1
    23    15    22    1
    24    16    22    1
    25    17    22    1
    26     1    23    1
    27     2    24    1
    28     3    25    1
    29     4    26    1
    30     5    27    1
    31     6    28    1
    32     7    29    1
    33     8    30    1
    34    13    31    1
    35    13    32    1
    36    14    33    1
    37    14    34    1
    38    15    35    1
    39    15    36    1
    40    16    37    1
    41    16    38    1
    42    17    39    1
    43    17    40    1
    44    20    41    1
    45    22    42    1
