@<TRIPOS>MOLECULE
ChEBML2018
 52 56 0 0 0
SMALL
USER_CHARGES

@<TRIPOS>ATOM
      1 C          -2.7569   -0.8390   -1.8552 C.ar    1  LIG1       -0.0615
      2 C          -3.6650   -1.2913   -2.8105 C.ar    1  LIG1       -0.0603
      3 C          -3.1605   -0.6107   -0.5347 C.ar    1  LIG1       -0.0530
      4 C          -5.0017   -1.5295   -2.4782 C.ar    1  LIG1       -0.0402
      5 C         -10.2182   -5.2436    0.5955 C.ar    1  LIG1       -0.0376
      6 C         -11.5500   -5.6439    0.7366 C.ar    1  LIG1       -0.0299
      7 C         -12.1410   -3.5203    1.7554 C.ar    1  LIG1       -0.0226
      8 C          -5.2415   -0.7227    1.0342 C.ar    1  LIG1       -0.0276
      9 C         -10.1062   -1.9008    1.9588 C.ar    1  LIG1       -0.0275
     10 C          -4.5031   -0.8438   -0.1762 C.ar    1  LIG1       -0.0022
     11 C         -10.8042   -3.0947    1.6238 C.ar    1  LIG1        0.0003
     12 C          -5.3909   -1.2969   -1.1543 C.ar    1  LIG1        0.0378
     13 C          -9.8755   -3.9644    1.0480 C.ar    1  LIG1        0.0379
     14 C         -12.4982   -4.7972    1.3073 C.ar    1  LIG1        0.0757
     15 C          -6.5392   -1.0972    0.7722 C.ar    1  LIG1        0.0811
     16 C          -8.7919   -2.0658    1.5873 C.ar    1  LIG1        0.0811
     17 C          -7.7099   -1.1424    1.7217 C.2     1  LIG1        0.2206
     18 C         -18.2887   -4.4812    0.9098 C.3     1  LIG1       -0.0533
     19 C         -18.0180   -5.8799    1.4550 C.3     1  LIG1       -0.0529
     20 C         -17.5475   -4.2370   -0.4010 C.3     1  LIG1       -0.0529
     21 C         -16.5218   -6.1485    1.5995 C.3     1  LIG1       -0.0482
     22 C         -16.0505   -4.5030   -0.2599 C.3     1  LIG1       -0.0482
     23 C         -15.7739   -5.9125    0.2803 C.3     1  LIG1       -0.0173
     24 C         -14.2738   -6.1354    0.4634 C.3     1  LIG1        0.0561
     25 N          -6.6194   -1.4421   -0.5503 N.ar    1  LIG1       -0.3112
     26 N          -8.6625   -3.3134    1.0386 N.ar    1  LIG1       -0.3112
     27 O          -7.6798   -0.3070    2.6552 O.2     1  LIG1       -0.2856
     28 O         -13.7991   -5.2195    1.4322 O.3     1  LIG1       -0.3457
     29 H          -1.7224   -0.6617   -2.1374 H       1  LIG1        0.0623
     30 H          -3.3300   -1.4616   -3.8302 H       1  LIG1        0.0623
     31 H          -2.4419   -0.2585    0.2002 H       1  LIG1        0.0629
     32 H          -5.7087   -1.8811   -3.2222 H       1  LIG1        0.0642
     33 H          -9.4808   -5.9033    0.1508 H       1  LIG1        0.0643
     34 H         -11.8427   -6.6334    0.3929 H       1  LIG1        0.0651
     35 H         -12.8865   -2.8657    2.1987 H       1  LIG1        0.0657
     36 H          -4.8596   -0.3959    1.9923 H       1  LIG1        0.0651
     37 H         -10.5252   -1.0175    2.4225 H       1  LIG1        0.0651
     38 H         -19.3652   -4.3470    0.7549 H       1  LIG1        0.0266
     39 H         -17.9762   -3.7345    1.6501 H       1  LIG1        0.0266
     40 H         -18.5094   -5.9972    2.4276 H       1  LIG1        0.0267
     41 H         -18.4595   -6.6256    0.7823 H       1  LIG1        0.0267
     42 H         -17.9619   -4.8878   -1.1810 H       1  LIG1        0.0267
     43 H         -17.7089   -3.2037   -0.7283 H       1  LIG1        0.0267
     44 H         -16.1126   -5.4973    2.3826 H       1  LIG1        0.0270
     45 H         -16.3710   -7.1814    1.9354 H       1  LIG1        0.0270
     46 H         -15.5674   -4.3748   -1.2359 H       1  LIG1        0.0270
     47 H         -15.6128   -3.7534    0.4119 H       1  LIG1        0.0270
     48 H         -16.1354   -6.6419   -0.4568 H       1  LIG1        0.0326
     49 H         -13.7565   -5.9645   -0.4799 H       1  LIG1        0.0575
     50 H         -14.0898   -7.1527    0.8067 H       1  LIG1        0.0575
     51 H          -7.4579   -1.7572   -1.0189 H       1  LIG1        0.1529
     52 H          -7.8026   -3.7036    0.6777 H       1  LIG1        0.1529
@<TRIPOS>BOND
     1     1     2   ar
     2     1     3   ar
     3     2     4   ar
     4     3    10   ar
     5     4    12   ar
     6     5     6   ar
     7     5    13   ar
     8     6    14   ar
     9     7    11   ar
    10     7    14   ar
    11     8    10   ar
    12     8    15   ar
    13     9    11   ar
    14     9    16   ar
    15    10    12   ar
    16    11    13   ar
    17    12    25   ar
    18    13    26   ar
    19    14    28    1
    20    15    17    1
    21    15    25   ar
    22    16    17    1
    23    16    26   ar
    24    17    27    2
    25    18    19    1
    26    18    20    1
    27    19    21    1
    28    20    22    1
    29    21    23    1
    30    22    23    1
    31    23    24    1
    32    24    28    1
    33     1    29    1
    34     2    30    1
    35     3    31    1
    36     4    32    1
    37     5    33    1
    38     6    34    1
    39     7    35    1
    40     8    36    1
    41     9    37    1
    42    18    38    1
    43    18    39    1
    44    19    40    1
    45    19    41    1
    46    20    42    1
    47    20    43    1
    48    21    44    1
    49    21    45    1
    50    22    46    1
    51    22    47    1
    52    23    48    1
    53    24    49    1
    54    24    50    1
    55    25    51    1
    56    26    52    1
