@<TRIPOS>MOLECULE
ChEBML198697
 45 48 0 0 0
SMALL
USER_CHARGES

@<TRIPOS>ATOM
      1 C         -14.3912   -5.7403    0.3809 C.ar    1  LIG1       -0.0616
      2 C         -13.5385   -6.8395    0.4208 C.ar    1  LIG1       -0.0616
      3 C          -2.2354    0.9610   -3.4748 C.ar    1  LIG1       -0.0422
      4 C         -13.8801   -4.4532    0.5502 C.ar    1  LIG1       -0.0544
      5 C         -12.1713   -6.6558    0.6302 C.ar    1  LIG1       -0.0543
      6 C         -11.9751   -2.9613    0.9346 C.ar    1  LIG1       -0.0525
      7 C         -10.6081   -2.7776    1.1441 C.ar    1  LIG1       -0.0400
      8 C          -1.9715   -0.3823   -3.2321 C.ar    1  LIG1       -0.0384
      9 C         -10.2663   -5.1638    1.0146 C.ar    1  LIG1       -0.0328
     10 C          -3.3289    1.5316   -2.8435 C.ar    1  LIG1        0.0292
     11 C         -12.5068   -4.2496    0.7621 C.ar    1  LIG1       -0.0182
     12 C         -11.6397   -5.3674    0.8027 C.ar    1  LIG1       -0.0165
     13 C          -9.7553   -3.8768    1.1841 C.ar    1  LIG1        0.0346
     14 C          -2.7974   -1.1040   -2.3775 C.ar    1  LIG1        0.0809
     15 C          -3.8657   -0.4409   -1.7952 C.ar    1  LIG1        0.1388
     16 C          -7.8654   -2.4238    1.6394 C.2     1  LIG1        0.3050
     17 C          -4.8256   -0.6862    0.4386 C.3     1  LIG1        0.0289
     18 C          -5.7797   -1.9251   -1.5290 C.3     1  LIG1        0.0289
     19 C          -6.2925   -0.6736    0.8631 C.3     1  LIG1        0.0315
     20 C          -6.4696   -2.7713   -0.4581 C.3     1  LIG1        0.0315
     21 N          -4.1537    0.8628   -2.0070 N.ar    1  LIG1       -0.2398
     22 N          -4.6906   -1.1365   -0.9494 N.pl3   1  LIG1       -0.3115
     23 N          -6.9121   -1.9870    0.7002 N.am    1  LIG1       -0.2824
     24 N          -8.3841   -3.6908    1.3946 N.am    1  LIG1       -0.2690
     25 O          -8.2091   -1.7405    2.6094 O.2     1  LIG1       -0.2537
     26 CL         -2.4559   -2.7671   -2.0877 Cl      1  LIG1       -0.0805
     27 H         -15.4552   -5.8840    0.2172 H       1  LIG1        0.0623
     28 H         -13.9371   -7.8412    0.2892 H       1  LIG1        0.0623
     29 H          -1.6053    1.5431   -4.1376 H       1  LIG1        0.0639
     30 H         -14.5653   -3.6088    0.5155 H       1  LIG1        0.0629
     31 H         -11.5234   -7.5295    0.6583 H       1  LIG1        0.0629
     32 H         -12.6230   -2.0876    0.9074 H       1  LIG1        0.0630
     33 H         -10.2208   -1.7701    1.2750 H       1  LIG1        0.0642
     34 H          -1.1189   -0.8515   -3.7163 H       1  LIG1        0.0640
     35 H          -9.5901   -6.0171    1.0479 H       1  LIG1        0.0649
     36 H          -3.5781    2.5760   -3.0001 H       1  LIG1        0.0840
     37 H          -4.4076    0.3197    0.5689 H       1  LIG1        0.0485
     38 H          -4.2533   -1.3651    1.0820 H       1  LIG1        0.0485
     39 H          -5.3928   -2.5849   -2.3147 H       1  LIG1        0.0485
     40 H          -6.5100   -1.2491   -1.9921 H       1  LIG1        0.0485
     41 H          -6.3759   -0.3429    1.9037 H       1  LIG1        0.0486
     42 H          -6.8670    0.0302    0.2483 H       1  LIG1        0.0486
     43 H          -7.3299   -3.2820   -0.9031 H       1  LIG1        0.0486
     44 H          -5.7818   -3.5363   -0.0780 H       1  LIG1        0.0486
     45 H          -7.8065   -4.5231    1.4151 H       1  LIG1        0.1573
@<TRIPOS>BOND
     1     1     2   ar
     2     1     4   ar
     3     2     5   ar
     4     3     8   ar
     5     3    10   ar
     6     4    11   ar
     7     5    12   ar
     8     6     7   ar
     9     6    11   ar
    10     7    13   ar
    11     8    14   ar
    12     9    12   ar
    13     9    13   ar
    14    10    21   ar
    15    11    12   ar
    16    13    24    1
    17    14    15   ar
    18    14    26    1
    19    15    21   ar
    20    15    22    1
    21    16    23   am
    22    16    24   am
    23    16    25    2
    24    17    19    1
    25    17    22    1
    26    18    20    1
    27    18    22    1
    28    19    23    1
    29    20    23    1
    30     1    27    1
    31     2    28    1
    32     3    29    1
    33     4    30    1
    34     5    31    1
    35     6    32    1
    36     7    33    1
    37     8    34    1
    38     9    35    1
    39    10    36    1
    40    17    37    1
    41    17    38    1
    42    18    39    1
    43    18    40    1
    44    19    41    1
    45    19    42    1
    46    20    43    1
    47    20    44    1
    48    24    45    1
