@<TRIPOS>MOLECULE
ChEBML367358
 40 42 0 0 0
SMALL
USER_CHARGES

@<TRIPOS>ATOM
      1 C          -1.9716    1.3076   -2.9138 C.ar    1  LIG1       -0.0622
      2 C          -3.3311    1.6033   -3.0124 C.ar    1  LIG1       -0.0620
      3 C          -1.5609    0.0769   -2.4014 C.ar    1  LIG1       -0.0620
      4 C          -4.2800    0.6685   -2.5985 C.ar    1  LIG1       -0.0589
      5 C          -2.5098   -0.8579   -1.9875 C.ar    1  LIG1       -0.0589
      6 C         -10.8309   -5.2161    1.3275 C.ar    1  LIG1       -0.0141
      7 C          -9.8196   -1.8377    1.8589 C.ar    1  LIG1       -0.0194
      8 C          -3.8693   -0.5621   -2.0861 C.ar    1  LIG1       -0.0456
      9 C         -10.0444   -4.0358    1.3812 C.ar    1  LIG1        0.0467
     10 C         -10.7145   -2.9460    1.8565 C.ar    1  LIG1        0.0366
     11 C          -8.6269   -2.3282    1.3736 C.ar    1  LIG1        0.0950
     12 C         -12.1045   -4.9492    1.7832 C.ar    1  LIG1        0.0802
     13 C          -7.3598   -1.5791    1.1730 C.2     1  LIG1        0.2579
     14 C          -4.2302   -2.0926    0.7259 C.2     1  LIG1        0.2323
     15 C          -3.1750   -1.8809    2.9753 C.3     1  LIG1       -0.0004
     16 C          -4.8955   -1.5740   -1.6379 C.3     1  LIG1       -0.0005
     17 C          -5.2732   -1.4206   -0.1600 C.3     1  LIG1        0.1036
     18 N          -8.7581   -3.6596    1.0827 N.ar    1  LIG1       -0.3096
     19 N          -6.5448   -2.0277    0.1429 N.am    1  LIG1       -0.2982
     20 N          -4.1232   -1.4734    1.9635 N.am    1  LIG1       -0.3169
     21 O          -7.0931   -0.6405    1.9190 O.2     1  LIG1       -0.2704
     22 O          -3.5452   -3.0417    0.3509 O.2     1  LIG1       -0.2755
     23 S         -12.3569   -3.3160    2.2660 S.2     1  LIG1       -0.0756
     24 CL        -13.4069   -6.0653    1.9052 Cl      1  LIG1       -0.0763
     25 H          -1.2328    2.0351   -3.2374 H       1  LIG1        0.0622
     26 H          -3.6511    2.5611   -3.4124 H       1  LIG1        0.0623
     27 H          -0.5025   -0.1541   -2.3255 H       1  LIG1        0.0623
     28 H          -5.3371    0.9077   -2.6789 H       1  LIG1        0.0625
     29 H          -2.1806   -1.8141   -1.5894 H       1  LIG1        0.0625
     30 H         -10.4886   -6.1831    0.9828 H       1  LIG1        0.0664
     31 H         -10.0257   -0.8240    2.1735 H       1  LIG1        0.0657
     32 H          -3.6208   -2.6391    3.6245 H       1  LIG1        0.0430
     33 H          -2.8820   -1.0227    3.5862 H       1  LIG1        0.0430
     34 H          -2.2800   -2.3002    2.5077 H       1  LIG1        0.0430
     35 H          -5.7910   -1.4966   -2.2693 H       1  LIG1        0.0340
     36 H          -4.4945   -2.5782   -1.8290 H       1  LIG1        0.0340
     37 H          -5.3563   -0.3643    0.1215 H       1  LIG1        0.0608
     38 H          -8.0556   -4.2879    0.7123 H       1  LIG1        0.1530
     39 H          -6.8061   -2.8521   -0.3913 H       1  LIG1        0.1506
     40 H          -4.7424   -0.6949    2.1685 H       1  LIG1        0.1490
@<TRIPOS>BOND
     1     1     2   ar
     2     1     3   ar
     3     2     4   ar
     4     3     5   ar
     5     4     8   ar
     6     5     8   ar
     7     6     9   ar
     8     6    12   ar
     9     7    10   ar
    10     7    11   ar
    11     8    16    1
    12     9    10   ar
    13     9    18   ar
    14    10    23   ar
    15    11    13    1
    16    11    18   ar
    17    12    23   ar
    18    12    24    1
    19    13    19   am
    20    13    21    2
    21    14    17    1
    22    14    20   am
    23    14    22    2
    24    15    20    1
    25    16    17    1
    26    17    19    1
    27     1    25    1
    28     2    26    1
    29     3    27    1
    30     4    28    1
    31     5    29    1
    32     6    30    1
    33     7    31    1
    34    15    32    1
    35    15    33    1
    36    15    34    1
    37    16    35    1
    38    16    36    1
    39    17    37    1
    40    18    38    1
    41    19    39    1
    42    20    40    1
