@<TRIPOS>MOLECULE
ChEBML723354
 51 55 0 0 0
SMALL
USER_CHARGES

@<TRIPOS>ATOM
      1 C          -2.2364    0.7439   -4.1132 C.ar    1  LIG1       -0.0622
      2 C          -1.4076   -0.2545   -3.6015 C.ar    1  LIG1       -0.0618
      3 C          -3.2062    1.3301   -3.2997 C.ar    1  LIG1       -0.0618
      4 C          -1.5486   -0.6669   -2.2765 C.ar    1  LIG1       -0.0538
      5 C          -3.3472    0.9177   -1.9746 C.ar    1  LIG1       -0.0538
      6 C         -11.4424   -5.7316    0.5407 C.ar    1  LIG1       -0.0574
      7 C         -10.1477   -5.2359    0.3635 C.ar    1  LIG1       -0.0398
      8 C         -12.0387   -3.8357    1.9349 C.ar    1  LIG1       -0.0479
      9 C          -9.5905   -0.2032    3.2673 C.ar    1  LIG1        0.1180
     10 C         -10.7389   -3.3156    1.7711 C.ar    1  LIG1        0.0239
     11 C          -2.5184   -0.0808   -1.4630 C.ar    1  LIG1       -0.0042
     12 C         -12.3750   -5.0440    1.3140 C.ar    1  LIG1       -0.0503
     13 C         -10.0666   -2.1522    2.2395 C.ar    1  LIG1        0.0988
     14 C          -9.8242   -4.0267    0.9899 C.ar    1  LIG1        0.0400
     15 C          -8.7697   -2.1779    1.7392 C.ar    1  LIG1        0.0981
     16 C          -7.8848   -1.1574    2.0403 C.ar    1  LIG1        0.1460
     17 C          -5.6025   -0.5053    2.4140 C.3     1  LIG1        0.0524
     18 C          -6.4739   -0.8939    0.1151 C.3     1  LIG1        0.0524
     19 C          -4.1885   -0.7860    1.9238 C.3     1  LIG1       -0.0177
     20 C          -5.0566   -1.1689   -0.3713 C.3     1  LIG1       -0.0177
     21 C         -13.7497   -5.6003    1.4837 C.3     1  LIG1       -0.0397
     22 C          -2.6708   -0.5241   -0.0378 C.3     1  LIG1       -0.0082
     23 N         -10.5221   -1.1483    3.0306 N.ar    1  LIG1       -0.2341
     24 N          -8.3147   -0.1468    2.8259 N.ar    1  LIG1       -0.2194
     25 N          -8.6433   -3.3163    0.9878 N.ar    1  LIG1       -0.3097
     26 N          -6.5702   -1.1663    1.5436 N.pl3   1  LIG1       -0.3037
     27 N          -4.0783   -0.3927    0.4725 N.4     1  LIG1        0.2516
     28 H          -2.1256    1.0659   -5.1445 H       1  LIG1        0.0622
     29 H          -0.6517   -0.7102   -4.2344 H       1  LIG1        0.0623
     30 H          -3.8510    2.1082   -3.6974 H       1  LIG1        0.0623
     31 H          -0.8985   -1.4457   -1.8865 H       1  LIG1        0.0628
     32 H          -4.1057    1.3799   -1.3483 H       1  LIG1        0.0628
     33 H         -11.7156   -6.6699    0.0629 H       1  LIG1        0.0626
     34 H          -9.4224   -5.7725   -0.2389 H       1  LIG1        0.0643
     35 H         -12.7698   -3.3029    2.5372 H       1  LIG1        0.0633
     36 H          -9.9063    0.6222    3.8960 H       1  LIG1        0.1063
     37 H          -5.6951   -0.8702    3.4444 H       1  LIG1        0.0524
     38 H          -5.7873    0.5769    2.4287 H       1  LIG1        0.0524
     39 H          -6.7432    0.1509   -0.0885 H       1  LIG1        0.0524
     40 H          -7.1672   -1.5296   -0.4494 H       1  LIG1        0.0524
     41 H          -3.4588   -0.1939    2.4856 H       1  LIG1        0.0831
     42 H          -3.9350   -1.8499    1.9988 H       1  LIG1        0.0831
     43 H          -4.7965   -2.2303   -0.2867 H       1  LIG1        0.0831
     44 H          -4.9334   -0.8423   -1.4091 H       1  LIG1        0.0831
     45 H         -13.7889   -6.2573    2.3606 H       1  LIG1        0.0280
     46 H         -14.4888   -4.7997    1.6142 H       1  LIG1        0.0280
     47 H         -14.0566   -6.1765    0.6017 H       1  LIG1        0.0280
     48 H          -2.3896   -1.5759    0.0819 H       1  LIG1        0.0869
     49 H          -2.0372    0.0689    0.6307 H       1  LIG1        0.0869
     50 H          -7.8041   -3.5980    0.5001 H       1  LIG1        0.1530
     51 H          -4.3258    0.6038    0.3995 H       1  LIG1        0.2008
@<TRIPOS>BOND
     1     1     2   ar
     2     1     3   ar
     3     2     4   ar
     4     3     5   ar
     5     4    11   ar
     6     5    11   ar
     7     6     7   ar
     8     6    12   ar
     9     7    14   ar
    10     8    10   ar
    11     8    12   ar
    12     9    23   ar
    13     9    24   ar
    14    10    13   ar
    15    10    14   ar
    16    11    22    1
    17    12    21    1
    18    13    15   ar
    19    13    23   ar
    20    14    25   ar
    21    15    16   ar
    22    15    25   ar
    23    16    24   ar
    24    16    26    1
    25    17    19    1
    26    17    26    1
    27    18    20    1
    28    18    26    1
    29    19    27    1
    30    20    27    1
    31    22    27    1
    32     1    28    1
    33     2    29    1
    34     3    30    1
    35     4    31    1
    36     5    32    1
    37     6    33    1
    38     7    34    1
    39     8    35    1
    40     9    36    1
    41    17    37    1
    42    17    38    1
    43    18    39    1
    44    18    40    1
    45    19    41    1
    46    19    42    1
    47    20    43    1
    48    20    44    1
    49    21    45    1
    50    21    46    1
    51    21    47    1
    52    22    48    1
    53    22    49    1
    54    25    50    1
    55    27    51    1
