@<TRIPOS>MOLECULE
ChEBML1066942
 31 33 0 0 0
SMALL
USER_CHARGES

@<TRIPOS>ATOM
      1 C          -4.1687   -0.5938   -1.4146 C.ar    1  LIG1       -0.0435
      2 C          -4.4782   -1.0462   -0.1368 C.ar    1  LIG1       -0.0555
      3 C         -10.2959   -5.2304    0.5652 C.ar    1  LIG1       -0.0376
      4 C         -11.6510   -5.5623    0.6517 C.ar    1  LIG1       -0.0302
      5 C         -12.1404   -3.4990    1.8350 C.ar    1  LIG1       -0.0229
      6 C         -10.0211   -2.0236    2.2043 C.ar    1  LIG1       -0.0279
      7 C          -5.2100   -0.4266   -2.3133 C.ar    1  LIG1        0.0268
      8 C          -6.7690   -1.1141   -0.7723 C.ar    1  LIG1        0.0304
      9 C         -10.7791   -3.1430    1.7599 C.ar    1  LIG1        0.0003
     10 C          -5.8008   -1.3138    0.1986 C.ar    1  LIG1       -0.0218
     11 C          -9.8901   -4.0151    1.1281 C.ar    1  LIG1        0.0379
     12 C         -12.5607   -4.7115    1.2763 C.ar    1  LIG1        0.0720
     13 C          -8.7109   -2.2341    1.8406 C.ar    1  LIG1        0.0750
     14 C          -7.5811   -1.3899    2.0683 C.2     1  LIG1        0.1808
     15 C          -6.1692   -1.8053    1.5770 C.3     1  LIG1        0.0389
     16 N          -6.5067   -0.6760   -2.0240 N.ar    1  LIG1       -0.2644
     17 N          -8.6419   -3.4378    1.1919 N.ar    1  LIG1       -0.3115
     18 O          -7.6900   -0.2879    2.6730 O.2     1  LIG1       -0.2923
     19 O         -13.8758   -5.0630    1.3449 O.3     1  LIG1       -0.3609
     20 H          -3.1448   -0.3787   -1.6981 H       1  LIG1        0.0639
     21 H          -3.6832   -1.1870    0.5905 H       1  LIG1        0.0627
     22 H          -9.5884   -5.8932    0.0784 H       1  LIG1        0.0643
     23 H         -11.9926   -6.5013    0.2222 H       1  LIG1        0.0651
     24 H         -12.8562   -2.8405    2.3197 H       1  LIG1        0.0657
     25 H         -10.3982   -1.1585    2.7335 H       1  LIG1        0.0651
     26 H          -5.0207   -0.0763   -3.3226 H       1  LIG1        0.0839
     27 H          -7.8180   -1.3060   -0.5687 H       1  LIG1        0.0842
     28 H          -6.1161   -2.9004    1.5869 H       1  LIG1        0.0401
     29 H          -5.4349   -1.4237    2.2963 H       1  LIG1        0.0401
     30 H          -7.7986   -3.8464    0.8130 H       1  LIG1        0.1529
     31 H         -14.3821   -4.3757    1.8052 H       1  LIG1        0.2182
@<TRIPOS>BOND
     1     1     2   ar
     2     1     7   ar
     3     2    10   ar
     4     3     4   ar
     5     3    11   ar
     6     4    12   ar
     7     5     9   ar
     8     5    12   ar
     9     6     9   ar
    10     6    13   ar
    11     7    16   ar
    12     8    10   ar
    13     8    16   ar
    14     9    11   ar
    15    10    15    1
    16    11    17   ar
    17    12    19    1
    18    13    14    1
    19    13    17   ar
    20    14    15    1
    21    14    18    2
    22     1    20    1
    23     2    21    1
    24     3    22    1
    25     4    23    1
    26     5    24    1
    27     6    25    1
    28     7    26    1
    29     8    27    1
    30    15    28    1
    31    15    29    1
    32    17    30    1
    33    19    31    1
