@<TRIPOS>MOLECULE
ChEBML336378
 41 43 0 0 0
SMALL
USER_CHARGES

@<TRIPOS>ATOM
      1 C          -2.6431    1.4546   -3.4870 C.ar    1  LIG1        0.0000
      2 C          -1.6832    0.4607   -3.5400 C.ar    1  LIG1        0.0000
      3 C          -3.6878    1.3629   -2.5858 C.ar    1  LIG1        0.0000
      4 C         -11.0795   -2.7034    1.9811 C.ar    1  LIG1        0.0000
      5 C          -9.5204   -4.3217    1.0736 C.ar    1  LIG1        0.0000
      6 C         -10.0485   -1.8081    2.1526 C.ar    1  LIG1        0.0000
      7 C          -8.4918   -3.4226    1.2407 C.ar    1  LIG1        0.0000
      8 C          -6.4077   -2.0034   -0.0391 C.ar    1  LIG1        0.0000
      9 C          -5.1900   -0.8472    1.7042 C.ar    1  LIG1        0.0000
     10 C          -1.7657   -0.6267   -2.6922 C.ar    1  LIG1        0.0000
     11 C          -3.7783    0.2745   -1.7401 C.ar    1  LIG1        0.0000
     12 C          -5.2400   -2.1466   -0.7534 C.ar    1  LIG1        0.0000
     13 C          -4.0259   -0.9998    0.9859 C.ar    1  LIG1        0.0000
     14 C         -10.8246   -3.9675    1.4371 C.ar    1  LIG1        0.0000
     15 C          -8.7475   -2.1608    1.7840 C.ar    1  LIG1        0.0000
     16 C          -6.3923   -1.3537    1.1996 C.ar    1  LIG1        0.0000
     17 C          -2.8133   -0.7214   -1.7871 C.ar    1  LIG1        0.0000
     18 C          -4.0458   -1.6466   -0.2452 C.ar    1  LIG1        0.0000
     19 C         -11.9264   -4.9258    1.2531 C.2     1  LIG1        0.0000
     20 C         -13.1846   -4.5834    1.6040 C.2     1  LIG1        0.0000
     21 C          -7.6409   -1.1979    1.9684 C.2     1  LIG1        0.0000
     22 C         -14.2785   -5.5349    1.4213 C.2     1  LIG1        0.0000
     23 O         -15.4188   -5.2264    1.7442 O.co2   1  LIG1       -0.5000
     24 O          -7.7603   -0.2777    2.7539 O.2     1  LIG1        0.0000
     25 O         -14.0542   -6.6427    0.9499 O.co2   1  LIG1       -0.5000
     26 O          -2.8970   -1.7903   -0.9524 O.3     1  LIG1        0.0000
     27 H          -2.5765    2.3042   -4.1505 H       1  LIG1        0.0000
     28 H          -0.8680    0.5349   -4.2445 H       1  LIG1        0.0000
     29 H          -4.4359    2.1407   -2.5463 H       1  LIG1        0.0000
     30 H         -12.0850   -2.4307    2.2657 H       1  LIG1        0.0000
     31 H          -9.3218   -5.2986    0.6582 H       1  LIG1        0.0000
     32 H         -10.2451   -0.8325    2.5721 H       1  LIG1        0.0000
     33 H          -7.4860   -3.6942    0.9561 H       1  LIG1        0.0000
     34 H          -7.3346   -2.3924   -0.4343 H       1  LIG1        0.0000
     35 H          -5.1744   -0.3410    2.6581 H       1  LIG1        0.0000
     36 H          -1.0152   -1.4024   -2.7334 H       1  LIG1        0.0000
     37 H          -4.5970    0.2012   -1.0394 H       1  LIG1        0.0000
     38 H          -5.2510   -2.6485   -1.7097 H       1  LIG1        0.0000
     39 H          -3.0964   -0.6134    1.3770 H       1  LIG1        0.0000
     40 H         -11.7285   -5.9027    0.8373 H       1  LIG1        0.0000
     41 H         -13.3825   -3.6066    2.0197 H       1  LIG1        0.0000
@<TRIPOS>BOND
     1     1     2   ar
     2     1     3   ar
     3     2    10   ar
     4     3    11   ar
     5     4     6   ar
     6     4    14   ar
     7     5     7   ar
     8     5    14   ar
     9     6    15   ar
    10     7    15   ar
    11     8    12   ar
    12     8    16   ar
    13     9    13   ar
    14     9    16   ar
    15    10    17   ar
    16    11    17   ar
    17    12    18   ar
    18    13    18   ar
    19    14    19    1
    20    15    21    1
    21    16    21    1
    22    17    26    1
    23    18    26    1
    24    19    20    2
    25    20    22    1
    26    21    24    2
    27    22    23   ar
    28    22    25   ar
    29     1    27    1
    30     2    28    1
    31     3    29    1
    32     4    30    1
    33     5    31    1
    34     6    32    1
    35     7    33    1
    36     8    34    1
    37     9    35    1
    38    10    36    1
    39    11    37    1
    40    12    38    1
    41    13    39    1
    42    19    40    1
    43    20    41    1
