@<TRIPOS>MOLECULE
ChEBML5487
 55 58 0 0 0
SMALL
USER_CHARGES

@<TRIPOS>ATOM
      1 C         -12.5093   -4.7877    1.2132 C.ar    1  LIG1       -0.0615
      2 C         -11.6090   -5.5564    0.4783 C.ar    1  LIG1       -0.0603
      3 C         -12.0989   -3.6025    1.8345 C.ar    1  LIG1       -0.0530
      4 C          -2.8842   -1.1256   -2.7774 C.ar    1  LIG1       -0.0518
      5 C          -3.2025    1.1334   -1.9821 C.ar    1  LIG1       -0.0518
      6 C          -1.5873   -0.9322    1.2293 C.ar    1  LIG1       -0.0518
      7 C          -2.4840   -2.9544    0.2579 C.ar    1  LIG1       -0.0518
      8 C         -10.2735   -5.1672    0.3406 C.ar    1  LIG1       -0.0402
      9 C          -2.6040   -0.6369   -4.0534 C.ar    1  LIG1       -0.0312
     10 C          -2.9225    1.6221   -3.2581 C.ar    1  LIG1       -0.0312
     11 C          -0.6643   -1.6884    1.9517 C.ar    1  LIG1       -0.0312
     12 C          -1.5610   -3.7107    0.9802 C.ar    1  LIG1       -0.0312
     13 C         -10.0137   -2.0766    2.1914 C.ar    1  LIG1       -0.0262
     14 C         -10.7574   -3.1900    1.7097 C.ar    1  LIG1       -0.0022
     15 C          -3.1835   -0.2405   -1.7417 C.ar    1  LIG1       -0.0179
     16 C          -2.4972   -1.5652    0.3825 C.ar    1  LIG1       -0.0179
     17 C          -9.8775   -3.9803    0.9671 C.ar    1  LIG1        0.0378
     18 C          -2.6232    0.7369   -4.2938 C.ar    1  LIG1        0.0746
     19 C          -0.6511   -3.0777    1.8270 C.ar    1  LIG1        0.0746
     20 C          -8.7206   -2.2102    1.7407 C.ar    1  LIG1        0.0945
     21 C          -4.6715   -0.4978    0.1972 C.2     1  LIG1       -0.0589
     22 C          -3.4809   -0.7592   -0.3872 C.2     1  LIG1       -0.0136
     23 C          -7.6087   -1.3418    1.9666 C.2     1  LIG1        0.2575
     24 C          -2.0520    0.2533   -6.5511 C.3     1  LIG1        0.0422
     25 C           1.1508   -3.1043    3.3789 C.3     1  LIG1        0.0422
     26 C          -5.1489   -0.9333    1.5497 C.3     1  LIG1        0.0305
     27 N          -8.6483   -3.3612    1.0030 N.ar    1  LIG1       -0.3101
     28 N          -6.3676   -1.6943    1.3940 N.am    1  LIG1       -0.3066
     29 O          -7.7171   -0.3050    2.6690 O.2     1  LIG1       -0.2704
     30 O          -2.3499    1.2138   -5.5390 O.3     1  LIG1       -0.3493
     31 O           0.2496   -3.8156    2.5319 O.3     1  LIG1       -0.3493
     32 H         -13.5430   -5.1106    1.3053 H       1  LIG1        0.0623
     33 H         -11.9493   -6.4734    0.0044 H       1  LIG1        0.0623
     34 H         -12.8115   -3.0124    2.4042 H       1  LIG1        0.0629
     35 H          -2.8653   -2.1992   -2.6055 H       1  LIG1        0.0630
     36 H          -3.4342    1.8359   -1.1850 H       1  LIG1        0.0630
     37 H          -1.5853    0.1498    1.3370 H       1  LIG1        0.0630
     38 H          -3.1870   -3.4622   -0.3981 H       1  LIG1        0.0630
     39 H          -9.5726   -5.7661   -0.2313 H       1  LIG1        0.0642
     40 H          -2.3716   -1.3314   -4.8562 H       1  LIG1        0.0650
     41 H          -2.9388    2.6933   -3.4394 H       1  LIG1        0.0650
     42 H           0.0420   -1.1898    2.6097 H       1  LIG1        0.0650
     43 H          -1.5555   -4.7926    0.8790 H       1  LIG1        0.0650
     44 H         -10.3889   -1.2664    2.8025 H       1  LIG1        0.0651
     45 H          -5.3920    0.1218   -0.3385 H       1  LIG1        0.0599
     46 H          -1.8533    0.7671   -7.4949 H       1  LIG1        0.0535
     47 H          -2.8974   -0.4297   -6.6667 H       1  LIG1        0.0535
     48 H          -1.1664   -0.3133   -6.2539 H       1  LIG1        0.0535
     49 H           1.8144   -3.8119    3.8821 H       1  LIG1        0.0535
     50 H           0.5834   -2.5322    4.1173 H       1  LIG1        0.0535
     51 H           1.7460   -2.4200    2.7697 H       1  LIG1        0.0535
     52 H          -5.3756   -0.0575    2.1657 H       1  LIG1        0.0512
     53 H          -4.4337   -1.5510    2.0976 H       1  LIG1        0.0512
     54 H          -7.8147   -3.7097    0.5496 H       1  LIG1        0.1529
     55 H          -6.3029   -2.5707    0.8865 H       1  LIG1        0.1500
@<TRIPOS>BOND
     1     1     2   ar
     2     1     3   ar
     3     2     8   ar
     4     3    14   ar
     5     4     9   ar
     6     4    15   ar
     7     5    10   ar
     8     5    15   ar
     9     6    11   ar
    10     6    16   ar
    11     7    12   ar
    12     7    16   ar
    13     8    17   ar
    14     9    18   ar
    15    10    18   ar
    16    11    19   ar
    17    12    19   ar
    18    13    14   ar
    19    13    20   ar
    20    14    17   ar
    21    15    22    1
    22    16    22    1
    23    17    27   ar
    24    18    30    1
    25    19    31    1
    26    20    23    1
    27    20    27   ar
    28    21    22    2
    29    21    26    1
    30    23    28   am
    31    23    29    2
    32    24    30    1
    33    25    31    1
    34    26    28    1
    35     1    32    1
    36     2    33    1
    37     3    34    1
    38     4    35    1
    39     5    36    1
    40     6    37    1
    41     7    38    1
    42     8    39    1
    43     9    40    1
    44    10    41    1
    45    11    42    1
    46    12    43    1
    47    13    44    1
    48    21    45    1
    49    24    46    1
    50    24    47    1
    51    24    48    1
    52    25    49    1
    53    25    50    1
    54    25    51    1
    55    26    52    1
    56    26    53    1
    57    27    54    1
    58    28    55    1
