@<TRIPOS>MOLECULE
ChEBML198825
 48 50 0 0 0
SMALL
USER_CHARGES

@<TRIPOS>ATOM
      1 C          -2.0515    1.2609   -2.9006 C.ar    1  LIG1       -0.0426
      2 C         -11.9157   -2.8884    0.9627 C.ar    1  LIG1       -0.0569
      3 C         -11.6030   -5.2608    0.6294 C.ar    1  LIG1       -0.0569
      4 C         -10.5517   -2.7441    1.2158 C.ar    1  LIG1       -0.0404
      5 C         -10.2389   -5.1165    0.8825 C.ar    1  LIG1       -0.0404
      6 C          -1.5431    0.1397   -2.2544 C.ar    1  LIG1       -0.0438
      7 C          -3.3960    1.5517   -2.7339 C.ar    1  LIG1        0.0291
      8 C         -12.4415   -4.1467    0.6694 C.ar    1  LIG1       -0.0453
      9 C          -9.7133   -3.8582    1.1758 C.ar    1  LIG1        0.0340
     10 C          -2.3829   -0.6454   -1.4721 C.ar    1  LIG1        0.0534
     11 C          -3.7125   -0.2691   -1.3692 C.ar    1  LIG1        0.1334
     12 C          -7.8129   -2.4817    1.7956 C.2     1  LIG1        0.3050
     13 C          -4.7235   -0.6944    0.8144 C.3     1  LIG1        0.0288
     14 C          -5.6527   -1.7398   -1.2737 C.3     1  LIG1        0.0288
     15 C          -6.1987   -0.6955    1.2088 C.3     1  LIG1        0.0315
     16 C          -6.3776   -2.6657   -0.2958 C.3     1  LIG1        0.0315
     17 C         -14.5968   -5.2109    1.4280 C.3     1  LIG1       -0.0587
     18 C         -14.1838   -4.8114   -1.0266 C.3     1  LIG1       -0.0587
     19 C         -13.8999   -4.3009    0.3988 C.3     1  LIG1       -0.0219
     20 N          -4.2425    0.8130   -1.9822 N.ar    1  LIG1       -0.2403
     21 N          -4.5651   -1.0231   -0.6048 N.pl3   1  LIG1       -0.3118
     22 N          -6.8335   -1.9794    0.9181 N.am    1  LIG1       -0.2824
     23 N          -8.3444   -3.7136    1.4295 N.am    1  LIG1       -0.2691
     24 O          -8.1674   -1.8809    2.8151 O.2     1  LIG1       -0.2537
     25 I          -1.5743   -2.3183   -0.5218 I       1  LIG1       -0.0405
     26 H          -1.4157    1.8875   -3.5156 H       1  LIG1        0.0639
     27 H         -12.5620   -2.0152    0.9982 H       1  LIG1        0.0626
     28 H         -12.0042   -6.2450    0.4025 H       1  LIG1        0.0626
     29 H         -10.1528   -1.7586    1.4428 H       1  LIG1        0.0642
     30 H          -9.5947   -5.9916    0.8498 H       1  LIG1        0.0642
     31 H          -0.4902   -0.1011   -2.3759 H       1  LIG1        0.0635
     32 H          -3.8413    2.4153   -3.2169 H       1  LIG1        0.0840
     33 H          -4.2940    0.2892    1.0415 H       1  LIG1        0.0485
     34 H          -4.1748   -1.4366    1.4067 H       1  LIG1        0.0485
     35 H          -5.2585   -2.3341   -2.1068 H       1  LIG1        0.0485
     36 H          -6.3632   -1.0139   -1.6899 H       1  LIG1        0.0485
     37 H          -6.2998   -0.4565    2.2726 H       1  LIG1        0.0486
     38 H          -6.7497    0.0687    0.6472 H       1  LIG1        0.0486
     39 H          -7.2353   -3.1213   -0.8014 H       1  LIG1        0.0486
     40 H          -5.7092   -3.4723    0.0289 H       1  LIG1        0.0486
     41 H         -14.1676   -6.2188    1.4308 H       1  LIG1        0.0236
     42 H         -15.6677   -5.3065    1.2180 H       1  LIG1        0.0236
     43 H         -14.4886   -4.7992    2.4377 H       1  LIG1        0.0236
     44 H         -13.7162   -5.7901   -1.1824 H       1  LIG1        0.0236
     45 H         -13.7873   -4.1263   -1.7839 H       1  LIG1        0.0236
     46 H         -15.2583   -4.9218   -1.2088 H       1  LIG1        0.0236
     47 H         -14.4015   -3.3173    0.4743 H       1  LIG1        0.0346
     48 H          -7.7793   -4.5538    1.3880 H       1  LIG1        0.1573
@<TRIPOS>BOND
     1     1     6   ar
     2     1     7   ar
     3     2     4   ar
     4     2     8   ar
     5     3     5   ar
     6     3     8   ar
     7     4     9   ar
     8     5     9   ar
     9     6    10   ar
    10     7    20   ar
    11     8    19    1
    12     9    23    1
    13    10    11   ar
    14    10    25    1
    15    11    20   ar
    16    11    21    1
    17    12    22   am
    18    12    23   am
    19    12    24    2
    20    13    15    1
    21    13    21    1
    22    14    16    1
    23    14    21    1
    24    15    22    1
    25    16    22    1
    26    17    19    1
    27    18    19    1
    28     1    26    1
    29     2    27    1
    30     3    28    1
    31     4    29    1
    32     5    30    1
    33     6    31    1
    34     7    32    1
    35    13    33    1
    36    13    34    1
    37    14    35    1
    38    14    36    1
    39    15    37    1
    40    15    38    1
    41    16    39    1
    42    16    40    1
    43    17    41    1
    44    17    42    1
    45    17    43    1
    46    18    44    1
    47    18    45    1
    48    18    46    1
    49    19    47    1
    50    23    48    1
