@<TRIPOS>MOLECULE
ChEBML357720
 53 56 0 0 0
SMALL
USER_CHARGES

@<TRIPOS>ATOM
      1 C          -0.2235    1.0690   -2.5115 C.ar    1  LIG1       -0.0622
      2 C          -0.9130    1.8294   -1.5671 C.ar    1  LIG1       -0.0620
      3 C          -0.9222    0.2107   -3.3605 C.ar    1  LIG1       -0.0620
      4 C          -2.3012    1.7316   -1.4716 C.ar    1  LIG1       -0.0590
      5 C          -2.3104    0.1128   -3.2651 C.ar    1  LIG1       -0.0590
      6 C         -10.2213   -5.3454    0.8099 C.ar    1  LIG1       -0.0366
      7 C         -11.5800   -5.6410    0.9625 C.ar    1  LIG1       -0.0376
      8 C         -12.0430   -3.4121    1.8260 C.ar    1  LIG1       -0.0119
      9 C          -2.9999    0.8732   -2.3206 C.ar    1  LIG1       -0.0477
     10 C         -10.6813   -3.0980    1.6794 C.ar    1  LIG1        0.0887
     11 C          -9.8122   -4.0638    1.1795 C.ar    1  LIG1        0.0578
     12 C         -12.4764   -4.6930    1.4612 C.ar    1  LIG1        0.0452
     13 C          -8.7565   -2.1746    1.6390 C.ar    1  LIG1        0.1863
     14 C          -7.7149   -1.1999    1.7830 C.2     1  LIG1        0.2790
     15 C          -6.3550   -0.7875   -1.5151 C.3     1  LIG1       -0.0341
     16 C          -4.7896    0.1732    0.2162 C.3     1  LIG1       -0.0341
     17 C          -6.8187   -1.8162   -0.4854 C.3     1  LIG1        0.0148
     18 C          -5.2829   -0.8828    1.2023 C.3     1  LIG1        0.0148
     19 C          -4.9176   -0.3214   -1.2336 C.3     1  LIG1       -0.0344
     20 C         -14.7423   -5.3077   -0.9178 C.3     1  LIG1        0.0225
     21 C          -4.4967    0.7671   -2.2180 C.3     1  LIG1       -0.0249
     22 N         -10.0076   -1.9312    1.9589 N.ar    1  LIG1       -0.2260
     23 N          -8.5882   -3.4457    1.1646 N.ar    1  LIG1       -0.2934
     24 N          -6.6539   -1.2959    0.8729 N.am    1  LIG1       -0.2953
     25 N         -13.8568   -5.0337    1.6026 N.pl3   1  LIG1       -0.2632
     26 O          -7.7788   -0.3442    2.6637 O.2     1  LIG1       -0.2683
     27 O         -16.3264   -4.5846    1.0149 O.2     1  LIG1       -0.4814
     28 O         -14.5926   -2.9478    0.2030 O.2     1  LIG1       -0.4814
     29 S         -14.9881   -4.3034    0.5298 S.O2    1  LIG1       -0.1957
     30 H           0.8572    1.1463   -2.5865 H       1  LIG1        0.0622
     31 H          -0.3693    2.4987   -0.9066 H       1  LIG1        0.0623
     32 H          -0.3859   -0.3807   -4.0967 H       1  LIG1        0.0623
     33 H          -2.8300    2.3277   -0.7326 H       1  LIG1        0.0625
     34 H          -2.8464   -0.5587   -3.9307 H       1  LIG1        0.0625
     35 H          -9.5237   -6.0794    0.4227 H       1  LIG1        0.0644
     36 H         -11.9338   -6.6315    0.6838 H       1  LIG1        0.0643
     37 H         -12.7395   -2.6744    2.2131 H       1  LIG1        0.0666
     38 H          -6.4209   -1.2205   -2.5201 H       1  LIG1        0.0285
     39 H          -7.0324    0.0760   -1.4905 H       1  LIG1        0.0285
     40 H          -5.3768    1.0915    0.3462 H       1  LIG1        0.0285
     41 H          -3.7454    0.4225    0.4381 H       1  LIG1        0.0285
     42 H          -7.8622   -2.0857   -0.6761 H       1  LIG1        0.0469
     43 H          -6.2228   -2.7333   -0.5618 H       1  LIG1        0.0469
     44 H          -4.6518   -1.7782    1.1530 H       1  LIG1        0.0469
     45 H          -5.2109   -0.4919    2.2201 H       1  LIG1        0.0469
     46 H          -4.2442   -1.1784   -1.3675 H       1  LIG1        0.0307
     47 H         -15.4117   -4.9510   -1.7021 H       1  LIG1        0.0442
     48 H         -13.7015   -5.2120   -1.2305 H       1  LIG1        0.0442
     49 H         -14.9713   -6.3432   -0.6613 H       1  LIG1        0.0442
     50 H          -4.9184    1.7268   -1.9025 H       1  LIG1        0.0319
     51 H          -4.9241    0.5529   -3.2031 H       1  LIG1        0.0319
     52 H          -7.7176   -3.8587    0.8569 H       1  LIG1        0.1545
     53 H         -14.0282   -6.0344    1.7935 H       1  LIG1        0.1702
@<TRIPOS>BOND
     1     1     2   ar
     2     1     3   ar
     3     2     4   ar
     4     3     5   ar
     5     4     9   ar
     6     5     9   ar
     7     6     7   ar
     8     6    11   ar
     9     7    12   ar
    10     8    10   ar
    11     8    12   ar
    12     9    21    1
    13    10    11   ar
    14    10    22   ar
    15    11    23   ar
    16    12    25    1
    17    13    14    1
    18    13    22   ar
    19    13    23   ar
    20    14    24   am
    21    14    26    2
    22    15    17    1
    23    15    19    1
    24    16    18    1
    25    16    19    1
    26    17    24    1
    27    18    24    1
    28    19    21    1
    29    20    29    1
    30    25    29    1
    31    27    29    2
    32    28    29    2
    33     1    30    1
    34     2    31    1
    35     3    32    1
    36     4    33    1
    37     5    34    1
    38     6    35    1
    39     7    36    1
    40     8    37    1
    41    15    38    1
    42    15    39    1
    43    16    40    1
    44    16    41    1
    45    17    42    1
    46    17    43    1
    47    18    44    1
    48    18    45    1
    49    19    46    1
    50    20    47    1
    51    20    48    1
    52    20    49    1
    53    21    50    1
    54    21    51    1
    55    23    52    1
    56    25    53    1
