@<TRIPOS>MOLECULE
ChEBML795173
 30 31 0 0 0
SMALL
USER_CHARGES

@<TRIPOS>ATOM
      1 C          -3.6307    1.5013   -2.7335 C.ar    1  LIG1       -0.0602
      2 C          -2.4229    1.0648   -3.2775 C.ar    1  LIG1       -0.0592
      3 C          -8.4845   -3.3873    0.9979 C.ar    1  LIG1       -0.0499
      4 C          -9.8095   -1.8150    2.2665 C.ar    1  LIG1       -0.0499
      5 C          -4.2770    0.7338   -1.7644 C.ar    1  LIG1       -0.0378
      6 C          -1.8611   -0.1392   -2.8525 C.ar    1  LIG1       -0.0244
      7 C          -9.5954   -4.2212    0.8711 C.ar    1  LIG1       -0.0472
      8 C         -10.9204   -2.6489    2.1398 C.ar    1  LIG1       -0.0472
      9 C          -8.5915   -2.1842    1.6956 C.ar    1  LIG1        0.0220
     10 C          -3.7153   -0.4701   -1.3394 C.ar    1  LIG1        0.0661
     11 C          -2.5073   -0.9066   -1.8835 C.ar    1  LIG1        0.1440
     12 C         -10.8134   -3.8521    1.4422 C.ar    1  LIG1        0.0175
     13 C          -6.1368   -1.7403    1.2019 C.2     1  LIG1       -0.0001
     14 C          -5.5379   -0.9827    0.2757 C.2     1  LIG1       -0.0032
     15 C          -7.4333   -1.3148    1.8278 C.2     1  LIG1        0.1866
     16 N          -4.3675   -1.2406   -0.3642 N.pl3   1  LIG1       -0.3186
     17 O          -7.5027   -0.2535    2.4663 O.2     1  LIG1       -0.2891
     18 F          -1.9587   -2.0623   -1.4824 F       1  LIG1       -0.2049
     19 BR        -12.3186   -4.9819    1.2704 Br      1  LIG1       -0.0508
     20 H          -4.0679    2.4386   -3.0647 H       1  LIG1        0.0623
     21 H          -1.9200    1.6629   -4.0318 H       1  LIG1        0.0624
     22 H          -7.5403   -3.6847    0.5490 H       1  LIG1        0.0631
     23 H          -9.9039   -0.8797    2.8124 H       1  LIG1        0.0631
     24 H          -5.2176    1.0838   -1.3465 H       1  LIG1        0.0643
     25 H          -0.9207   -0.4790   -3.2759 H       1  LIG1        0.0654
     26 H          -9.4953   -5.1553    0.3244 H       1  LIG1        0.0635
     27 H         -11.8621   -2.3465    2.5907 H       1  LIG1        0.0635
     28 H          -5.6858   -2.6715    1.5252 H       1  LIG1        0.0677
     29 H          -5.9677   -0.0452   -0.0597 H       1  LIG1        0.0790
     30 H          -3.9131   -2.1042   -0.0951 H       1  LIG1        0.1523
@<TRIPOS>BOND
     1     1     2   ar
     2     1     5   ar
     3     2     6   ar
     4     3     7   ar
     5     3     9   ar
     6     4     8   ar
     7     4     9   ar
     8     5    10   ar
     9     6    11   ar
    10     7    12   ar
    11     8    12   ar
    12     9    15    1
    13    10    11   ar
    14    10    16    1
    15    11    18    1
    16    12    19    1
    17    13    14    2
    18    13    15    1
    19    14    16    1
    20    15    17    2
    21     1    20    1
    22     2    21    1
    23     3    22    1
    24     4    23    1
    25     5    24    1
    26     6    25    1
    27     7    26    1
    28     8    27    1
    29    13    28    1
    30    14    29    1
    31    16    30    1
