@<TRIPOS>MOLECULE
ChEBML203700
 72 75 0 0 0
SMALL
USER_CHARGES

@<TRIPOS>ATOM
      1 C          -2.0220   -3.0668   -4.1356 C.ar    1  LIG1       -0.0418
      2 C         -10.3793   -5.1894    0.5250 C.ar    1  LIG1       -0.0383
      3 C          -1.6875   -1.7329   -4.3265 C.ar    1  LIG1       -0.0360
      4 C         -11.7092   -5.5066    0.6771 C.ar    1  LIG1       -0.0377
      5 C         -12.0933   -3.4742    1.9091 C.ar    1  LIG1       -0.0304
      6 C          -9.9618   -2.0357    2.1854 C.ar    1  LIG1       -0.0261
      7 C          -2.8863   -3.4089   -3.1155 C.ar    1  LIG1        0.0292
      8 C         -10.7406   -3.1393    1.7607 C.ar    1  LIG1       -0.0003
      9 C          -9.8788   -4.0064    1.0620 C.ar    1  LIG1        0.0379
     10 C         -12.5684   -4.6517    1.3683 C.ar    1  LIG1        0.0437
     11 C          -2.2402   -0.7843   -3.4761 C.ar    1  LIG1        0.0670
     12 C          -8.6884   -2.2378    1.7567 C.ar    1  LIG1        0.0947
     13 C          -3.1037   -1.2059   -2.4619 C.ar    1  LIG1        0.1413
     14 C          -7.5571   -1.3265    1.9855 C.2     1  LIG1        0.2598
     15 C          -4.4983   -0.1198    0.7008 C.3     1  LIG1       -0.0185
     16 C          -5.6822   -1.5191   -0.9995 C.3     1  LIG1       -0.0185
     17 C          -5.1477   -0.9214    1.8334 C.3     1  LIG1        0.0162
     18 C          -6.3449   -2.3366    0.1138 C.3     1  LIG1        0.0162
     19 C          -4.3156   -1.0250   -0.5196 C.3     1  LIG1        0.0271
     20 C          -0.8589    2.5224   -4.6435 C.3     1  LIG1       -0.0497
     21 C          -5.3516    1.5003   -1.4664 C.3     1  LIG1       -0.0494
     22 C         -15.5588   -4.5422   -2.1879 C.3     1  LIG1       -0.0456
     23 C         -15.1539   -2.9215   -0.3301 C.3     1  LIG1       -0.0456
     24 C          -1.0255    1.0025   -4.6967 C.3     1  LIG1        0.0056
     25 C          -4.7307    0.4105   -2.3426 C.3     1  LIG1        0.0104
     26 C         -14.6732   -4.2190   -0.9829 C.3     1  LIG1        0.0393
     27 N          -3.3983   -2.4874   -2.3204 N.ar    1  LIG1       -0.2394
     28 N          -8.6269   -3.4327    1.0667 N.ar    1  LIG1       -0.3101
     29 N          -6.3929   -1.5208    1.3348 N.am    1  LIG1       -0.2966
     30 N          -1.9323    0.5729   -3.6292 N.pl3   1  LIG1       -0.3419
     31 N         -13.9185   -4.9902    1.5145 N.pl3   1  LIG1       -0.2628
     32 N          -3.6629   -0.2686   -1.5966 N.pl3   1  LIG1       -0.3114
     33 O          -7.6722   -0.3971    2.7620 O.2     1  LIG1       -0.2702
     34 O         -13.9969   -6.6930   -0.1883 O.2     1  LIG1       -0.4808
     35 O         -16.0839   -5.7139    0.7447 O.2     1  LIG1       -0.4808
     36 S         -14.7708   -5.5733    0.2199 S.O2    1  LIG1       -0.1904
     37 H          -1.6099   -3.8295   -4.7796 H       1  LIG1        0.0639
     38 H          -9.7229   -5.8584   -0.0117 H       1  LIG1        0.0643
     39 H          -1.0137   -1.4399   -5.1179 H       1  LIG1        0.0644
     40 H         -12.0916   -6.4255    0.2579 H       1  LIG1        0.0643
     41 H         -12.7603   -2.8144    2.4440 H       1  LIG1        0.0650
     42 H         -10.3165   -1.1855    2.7491 H       1  LIG1        0.0651
     43 H          -3.1480   -4.4460   -2.9655 H       1  LIG1        0.0840
     44 H          -3.5267    0.2505    1.0278 H       1  LIG1        0.0302
     45 H          -5.1389    0.7217    0.4370 H       1  LIG1        0.0302
     46 H          -6.3117   -0.6644   -1.2473 H       1  LIG1        0.0302
     47 H          -5.5532   -2.1448   -1.8827 H       1  LIG1        0.0302
     48 H          -4.4683   -1.7087    2.1599 H       1  LIG1        0.0470
     49 H          -5.3704   -0.2582    2.6693 H       1  LIG1        0.0470
     50 H          -5.7631   -3.2393    0.3000 H       1  LIG1        0.0470
     51 H          -7.3577   -2.6071   -0.1850 H       1  LIG1        0.0470
     52 H          -3.6953   -1.8792   -0.2483 H       1  LIG1        0.0506
     53 H          -1.8299    2.9992   -4.7779 H       1  LIG1        0.0246
     54 H          -0.4441    2.8090   -3.6771 H       1  LIG1        0.0246
     55 H          -0.1843    2.8421   -5.4377 H       1  LIG1        0.0246
     56 H          -5.8706    2.2219   -2.0972 H       1  LIG1        0.0246
     57 H          -6.0602    1.0485   -0.7723 H       1  LIG1        0.0246
     58 H          -4.5661    2.0068   -0.9055 H       1  LIG1        0.0246
     59 H         -16.5910   -4.6619   -1.8584 H       1  LIG1        0.0249
     60 H         -15.5003   -3.7284   -2.9106 H       1  LIG1        0.0249
     61 H         -15.2165   -5.4667   -2.6530 H       1  LIG1        0.0249
     62 H         -15.1785   -2.1269   -1.0759 H       1  LIG1        0.0249
     63 H         -16.1542   -3.0685    0.0772 H       1  LIG1        0.0249
     64 H         -14.4715   -2.6445    0.4734 H       1  LIG1        0.0249
     65 H          -1.4404    0.7159   -5.6630 H       1  LIG1        0.0463
     66 H          -0.0545    0.5256   -4.5623 H       1  LIG1        0.0463
     67 H          -4.3143    0.8617   -3.2432 H       1  LIG1        0.0466
     68 H          -5.4971   -0.3134   -2.6199 H       1  LIG1        0.0466
     69 H         -13.6411   -4.0993   -1.3123 H       1  LIG1        0.0510
     70 H          -7.8325   -3.8069    0.6548 H       1  LIG1        0.1529
     71 H          -2.3193    1.2288   -3.0285 H       1  LIG1        0.1466
     72 H         -14.3550   -4.8833    2.3741 H       1  LIG1        0.1702
@<TRIPOS>BOND
     1     1     3   ar
     2     1     7   ar
     3     2     4   ar
     4     2     9   ar
     5     3    11   ar
     6     4    10   ar
     7     5     8   ar
     8     5    10   ar
     9     6     8   ar
    10     6    12   ar
    11     7    27   ar
    12     8     9   ar
    13     9    28   ar
    14    10    31    1
    15    11    13   ar
    16    11    30    1
    17    12    14    1
    18    12    28   ar
    19    13    27   ar
    20    13    32    1
    21    14    29   am
    22    14    33    2
    23    15    17    1
    24    15    19    1
    25    16    18    1
    26    16    19    1
    27    17    29    1
    28    18    29    1
    29    19    32    1
    30    20    24    1
    31    21    25    1
    32    22    26    1
    33    23    26    1
    34    24    30    1
    35    25    32    1
    36    26    36    1
    37    31    36    1
    38    34    36    2
    39    35    36    2
    40     1    37    1
    41     2    38    1
    42     3    39    1
    43     4    40    1
    44     5    41    1
    45     6    42    1
    46     7    43    1
    47    15    44    1
    48    15    45    1
    49    16    46    1
    50    16    47    1
    51    17    48    1
    52    17    49    1
    53    18    50    1
    54    18    51    1
    55    19    52    1
    56    20    53    1
    57    20    54    1
    58    20    55    1
    59    21    56    1
    60    21    57    1
    61    21    58    1
    62    22    59    1
    63    22    60    1
    64    22    61    1
    65    23    62    1
    66    23    63    1
    67    23    64    1
    68    24    65    1
    69    24    66    1
    70    25    67    1
    71    25    68    1
    72    26    69    1
    73    28    70    1
    74    30    71    1
    75    31    72    1
