@<TRIPOS>MOLECULE
ChEBML300261
 46 48 0 0 0
SMALL
USER_CHARGES

@<TRIPOS>ATOM
      1 C         -10.3632   -5.0876    0.3224 C.ar    1  LIG1       -0.0387
      2 C         -11.6725   -5.5150    0.5604 C.ar    1  LIG1       -0.0416
      3 C         -12.0718   -3.6465    2.0591 C.ar    1  LIG1       -0.0343
      4 C          -9.9917   -2.0921    2.3060 C.ar    1  LIG1       -0.0262
      5 C         -10.7556   -3.1964    1.8348 C.ar    1  LIG1       -0.0007
      6 C          -9.9333   -3.9258    0.9733 C.ar    1  LIG1        0.0379
      7 C         -12.5154   -4.8072    1.4149 C.ar    1  LIG1        0.0413
      8 C          -8.7436   -2.1713    1.7326 C.ar    1  LIG1        0.0945
      9 C          -7.5879   -1.2545    1.9093 C.2     1  LIG1        0.2576
     10 C          -4.8582   -0.2657   -0.0843 C.2     1  LIG1        0.2318
     11 C          -1.4548   -0.0398   -1.0443 C.3     1  LIG1        0.0102
     12 C          -1.6718   -1.5377   -1.1351 C.3     1  LIG1       -0.0325
     13 C          -3.3886   -0.3505   -2.4222 C.3     1  LIG1       -0.0153
     14 C          -2.8371    0.5334   -1.3118 C.3     1  LIG1        0.0689
     15 C          -3.1978    1.2739    1.0111 C.3     1  LIG1        0.0033
     16 C          -3.5958   -2.8535   -2.0892 C.3     1  LIG1       -0.0454
     17 C          -5.2291   -0.8026    1.2868 C.3     1  LIG1        0.0887
     18 N          -8.7181   -3.2803    0.9302 N.ar    1  LIG1       -0.3101
     19 N          -6.4343   -1.5766    1.2012 N.am    1  LIG1       -0.3013
     20 N          -3.6679    0.4880   -0.1327 N.am    1  LIG1       -0.2951
     21 N          -2.6773   -1.6851   -2.2562 N.4     1  LIG1        0.2453
     22 O          -7.6947   -0.2937    2.6668 O.2     1  LIG1       -0.2704
     23 O          -5.5705   -0.4941   -1.0657 O.2     1  LIG1       -0.2756
     24 CL        -14.1237   -5.3648    1.6818 Cl      1  LIG1       -0.0843
     25 H          -9.7077   -5.6399   -0.3426 H       1  LIG1        0.0643
     26 H         -12.0238   -6.4168    0.0630 H       1  LIG1        0.0639
     27 H         -12.7279   -3.0937    2.7264 H       1  LIG1        0.0645
     28 H         -10.3237   -1.3237    2.9916 H       1  LIG1        0.0651
     29 H          -1.0410    0.2546   -0.0749 H       1  LIG1        0.0342
     30 H          -0.7564    0.2818   -1.8266 H       1  LIG1        0.0342
     31 H          -0.7711   -2.0972   -1.4019 H       1  LIG1        0.0815
     32 H          -2.1170   -1.9408   -0.2191 H       1  LIG1        0.0815
     33 H          -4.4718   -0.5029   -2.3808 H       1  LIG1        0.0834
     34 H          -3.0995    0.0200   -3.4113 H       1  LIG1        0.0834
     35 H          -2.7922    1.5824   -1.6198 H       1  LIG1        0.0563
     36 H          -2.5494    0.6638    1.6452 H       1  LIG1        0.0433
     37 H          -4.0471    1.6204    1.6063 H       1  LIG1        0.0433
     38 H          -2.6339    2.1444    0.6653 H       1  LIG1        0.0433
     39 H          -4.1717   -2.6977   -1.1750 H       1  LIG1        0.0777
     40 H          -4.2491   -2.8926   -2.9629 H       1  LIG1        0.0777
     41 H          -2.9820   -3.7535   -2.0175 H       1  LIG1        0.0777
     42 H          -4.4406   -1.4591    1.6637 H       1  LIG1        0.0567
     43 H          -5.4152    0.0210    1.9809 H       1  LIG1        0.0567
     44 H          -7.9237   -3.5845    0.3839 H       1  LIG1        0.1529
     45 H          -6.4092   -2.4286    0.6419 H       1  LIG1        0.1503
     46 H          -2.1421   -1.8461   -3.1205 H       1  LIG1        0.2001
@<TRIPOS>BOND
     1     1     2   ar
     2     1     6   ar
     3     2     7   ar
     4     3     5   ar
     5     3     7   ar
     6     4     5   ar
     7     4     8   ar
     8     5     6   ar
     9     6    18   ar
    10     7    24    1
    11     8     9    1
    12     8    18   ar
    13     9    19   am
    14     9    22    2
    15    10    17    1
    16    10    20   am
    17    10    23    2
    18    11    12    1
    19    11    14    1
    20    12    21    1
    21    13    14    1
    22    13    21    1
    23    14    20    1
    24    15    20    1
    25    16    21    1
    26    17    19    1
    27     1    25    1
    28     2    26    1
    29     3    27    1
    30     4    28    1
    31    11    29    1
    32    11    30    1
    33    12    31    1
    34    12    32    1
    35    13    33    1
    36    13    34    1
    37    14    35    1
    38    15    36    1
    39    15    37    1
    40    15    38    1
    41    16    39    1
    42    16    40    1
    43    16    41    1
    44    17    42    1
    45    17    43    1
    46    18    44    1
    47    19    45    1
    48    21    46    1
