@<TRIPOS>MOLECULE
ChEBML52482
 66 70 0 0 0
SMALL
USER_CHARGES

@<TRIPOS>ATOM
      1 C         -15.4427  -10.1029   -1.0897 C.ar    1  LIG1       -0.0622
      2 C         -15.4478   -8.9306   -1.8223 C.ar    1  LIG1       -0.0619
      3 C         -14.8620  -10.1317    0.1645 C.ar    1  LIG1       -0.0619
      4 C          -2.3278    1.0002   -3.4595 C.ar    1  LIG1       -0.0418
      5 C         -12.1078   -3.3920    1.9853 C.ar    1  LIG1       -0.0504
      6 C         -14.8726   -7.7870   -1.3005 C.ar    1  LIG1       -0.0567
      7 C         -14.2829   -8.9891    0.6844 C.ar    1  LIG1       -0.0567
      8 C          -1.8026   -0.2257   -3.0734 C.ar    1  LIG1       -0.0360
      9 C         -12.6017   -4.5378    1.4367 C.ar    1  LIG1       -0.0310
     10 C          -9.9700   -1.9556    2.2184 C.ar    1  LIG1       -0.0262
     11 C         -10.4503   -5.0545    0.4785 C.ar    1  LIG1       -0.0097
     12 C          -3.4686    1.4725   -2.8428 C.ar    1  LIG1        0.0292
     13 C         -10.7628   -3.0475    1.7917 C.ar    1  LIG1       -0.0020
     14 C         -14.2926   -7.8156   -0.0460 C.ar    1  LIG1       -0.0218
     15 C          -9.9281   -3.8892    1.0298 C.ar    1  LIG1        0.0404
     16 C          -2.4505   -0.9372   -2.0724 C.ar    1  LIG1        0.0672
     17 C         -11.7795   -5.3743    0.6823 C.ar    1  LIG1        0.0773
     18 C          -8.7147   -2.1391    1.7308 C.ar    1  LIG1        0.0947
     19 C          -3.6042   -0.3983   -1.4973 C.ar    1  LIG1        0.1412
     20 C          -7.5780   -1.2323    1.9412 C.2     1  LIG1        0.2599
     21 C          -4.4441   -0.1715    0.6266 C.3     1  LIG1        0.0288
     22 C          -5.6050   -1.4147   -1.0168 C.3     1  LIG1        0.0288
     23 C          -5.1521   -0.8878    1.7810 C.3     1  LIG1        0.0303
     24 C          -6.3898   -2.2130    0.0292 C.3     1  LIG1        0.0303
     25 C           0.4825   -2.2464   -1.7811 C.3     1  LIG1       -0.0470
     26 C          -0.8738   -4.3113   -2.1539 C.3     1  LIG1       -0.0470
     27 C         -13.6654   -6.5689    0.5227 C.3     1  LIG1        0.0784
     28 C          -0.8283   -2.7945   -2.3489 C.3     1  LIG1        0.0142
     29 N          -4.0660    0.7762   -1.8930 N.ar    1  LIG1       -0.2394
     30 N          -8.6798   -3.3129    1.0002 N.ar    1  LIG1       -0.3100
     31 N          -4.2698   -1.1007   -0.4956 N.pl3   1  LIG1       -0.3112
     32 N          -6.4222   -1.4356    1.2784 N.am    1  LIG1       -0.2936
     33 N          -1.9587   -2.1781   -1.6499 N.pl3   1  LIG1       -0.3393
     34 O          -7.6801   -0.2979    2.7137 O.2     1  LIG1       -0.2701
     35 O         -12.2887   -6.5128    0.1439 O.3     1  LIG1       -0.3413
     36 H         -15.8928  -10.9962   -1.4970 H       1  LIG1        0.0622
     37 H         -15.9015   -8.9081   -2.8021 H       1  LIG1        0.0623
     38 H         -14.8583  -11.0474    0.7369 H       1  LIG1        0.0623
     39 H          -1.8480    1.5790   -4.2348 H       1  LIG1        0.0639
     40 H         -12.7518   -2.7505    2.5687 H       1  LIG1        0.0630
     41 H         -14.8765   -6.8712   -1.8729 H       1  LIG1        0.0626
     42 H         -13.8259   -9.0127    1.6626 H       1  LIG1        0.0626
     43 H          -0.9107   -0.6166   -3.5406 H       1  LIG1        0.0644
     44 H         -13.6383   -4.8003    1.5879 H       1  LIG1        0.0650
     45 H         -10.3029   -1.1255    2.8237 H       1  LIG1        0.0651
     46 H          -9.8194   -5.7072   -0.1066 H       1  LIG1        0.0670
     47 H          -3.8787    2.4260   -3.1412 H       1  LIG1        0.0840
     48 H          -3.4683    0.1802    0.9615 H       1  LIG1        0.0485
     49 H          -5.0449    0.6788    0.3039 H       1  LIG1        0.0485
     50 H          -6.1350   -0.4885   -1.2392 H       1  LIG1        0.0485
     51 H          -5.5095   -2.0055   -1.9277 H       1  LIG1        0.0485
     52 H          -4.5237   -1.6979    2.1510 H       1  LIG1        0.0486
     53 H          -5.3506   -0.1798    2.5857 H       1  LIG1        0.0486
     54 H          -5.8984   -3.1701    0.2050 H       1  LIG1        0.0486
     55 H          -7.4069   -2.3817   -0.3247 H       1  LIG1        0.0486
     56 H           0.5428   -2.4781   -0.7177 H       1  LIG1        0.0249
     57 H           1.3236   -2.7051   -2.3011 H       1  LIG1        0.0249
     58 H           0.5150   -1.1659   -1.9199 H       1  LIG1        0.0249
     59 H          -0.8135   -4.5429   -1.0905 H       1  LIG1        0.0249
     60 H          -1.8077   -4.7017   -2.5584 H       1  LIG1        0.0249
     61 H          -0.0329   -4.7699   -2.6739 H       1  LIG1        0.0249
     62 H         -13.7427   -6.5868    1.6099 H       1  LIG1        0.0624
     63 H         -14.1847   -5.6921    0.1360 H       1  LIG1        0.0624
     64 H          -0.8886   -2.5628   -3.4122 H       1  LIG1        0.0497
     65 H          -7.9027   -3.6715    0.5436 H       1  LIG1        0.1529
     66 H          -2.3664   -2.6297   -0.8945 H       1  LIG1        0.1469
@<TRIPOS>BOND
     1     1     2   ar
     2     1     3   ar
     3     2     6   ar
     4     3     7   ar
     5     4     8   ar
     6     4    12   ar
     7     5     9   ar
     8     5    13   ar
     9     6    14   ar
    10     7    14   ar
    11     8    16   ar
    12     9    17   ar
    13    10    13   ar
    14    10    18   ar
    15    11    15   ar
    16    11    17   ar
    17    12    29   ar
    18    13    15   ar
    19    14    27    1
    20    15    30   ar
    21    16    19   ar
    22    16    33    1
    23    17    35    1
    24    18    20    1
    25    18    30   ar
    26    19    29   ar
    27    19    31    1
    28    20    32   am
    29    20    34    2
    30    21    23    1
    31    21    31    1
    32    22    24    1
    33    22    31    1
    34    23    32    1
    35    24    32    1
    36    25    28    1
    37    26    28    1
    38    27    35    1
    39    28    33    1
    40     1    36    1
    41     2    37    1
    42     3    38    1
    43     4    39    1
    44     5    40    1
    45     6    41    1
    46     7    42    1
    47     8    43    1
    48     9    44    1
    49    10    45    1
    50    11    46    1
    51    12    47    1
    52    21    48    1
    53    21    49    1
    54    22    50    1
    55    22    51    1
    56    23    52    1
    57    23    53    1
    58    24    54    1
    59    24    55    1
    60    25    56    1
    61    25    57    1
    62    25    58    1
    63    26    59    1
    64    26    60    1
    65    26    61    1
    66    27    62    1
    67    27    63    1
    68    28    64    1
    69    30    65    1
    70    33    66    1
