@<TRIPOS>MOLECULE
ChEBML593313
 39 42 0 0 0
SMALL
USER_CHARGES

@<TRIPOS>ATOM
      1 C         -12.5404   -4.7068    1.4003 C.ar    1  LIG1       -0.0615
      2 C         -11.6840   -5.5239    0.6649 C.ar    1  LIG1       -0.0603
      3 C         -12.0824   -3.5080    1.9589 C.ar    1  LIG1       -0.0530
      4 C         -10.3465   -5.1708    0.4644 C.ar    1  LIG1       -0.0402
      5 C          -9.9533   -2.0171    2.1806 C.ar    1  LIG1       -0.0254
      6 C         -10.7378   -3.1313    1.7702 C.ar    1  LIG1       -0.0022
      7 C          -9.9026   -3.9696    1.0287 C.ar    1  LIG1        0.0378
      8 C          -8.6808   -2.1975    1.6899 C.ar    1  LIG1        0.1046
      9 C          -7.4985   -1.3132    1.8472 C.2     1  LIG1        0.3073
     10 C          -4.9111    0.0440   -2.4590 C.3     1  LIG1       -0.0055
     11 C          -4.6214    1.1652   -1.4516 C.3     1  LIG1       -0.0055
     12 C          -5.2650   -1.9588   -0.9015 C.3     1  LIG1        0.0165
     13 C          -4.7870   -0.0980    0.7708 C.3     1  LIG1        0.0165
     14 C          -4.3112   -1.2216   -1.8479 C.3     1  LIG1       -0.0222
     15 C          -3.8686    0.4984   -0.3012 C.3     1  LIG1       -0.0222
     16 C          -5.8461   -1.0413    0.1826 C.3     1  LIG1        0.0781
     17 N          -8.6600   -3.3778    0.9963 N.ar    1  LIG1       -0.3094
     18 N          -3.2091   -0.6576   -0.9974 N.4     1  LIG1        0.2430
     19 O          -7.5263   -0.2622    2.4684 O.2     1  LIG1       -0.2591
     20 O          -6.4155   -1.8402    1.2134 O.3     1  LIG1       -0.3073
     21 H         -13.5767   -5.0022    1.5419 H       1  LIG1        0.0623
     22 H         -12.0609   -6.4506    0.2404 H       1  LIG1        0.0623
     23 H         -12.7609   -2.8800    2.5297 H       1  LIG1        0.0629
     24 H          -9.6798   -5.8073   -0.1077 H       1  LIG1        0.0642
     25 H         -10.2887   -1.1754    2.7719 H       1  LIG1        0.0652
     26 H          -5.9807   -0.0567   -2.6693 H       1  LIG1        0.0326
     27 H          -4.4148    0.2747   -3.4094 H       1  LIG1        0.0326
     28 H          -3.9876    1.9236   -1.9268 H       1  LIG1        0.0326
     29 H          -5.5351    1.6689   -1.1201 H       1  LIG1        0.0326
     30 H          -6.0879   -2.4089   -1.4706 H       1  LIG1        0.0351
     31 H          -4.7396   -2.7999   -0.4295 H       1  LIG1        0.0351
     32 H          -4.1857   -0.6385    1.5140 H       1  LIG1        0.0351
     33 H          -5.2887    0.7044    1.3258 H       1  LIG1        0.0351
     34 H          -3.8675   -1.8937   -2.5881 H       1  LIG1        0.0852
     35 H          -3.0890    1.1311    0.1327 H       1  LIG1        0.0852
     36 H          -6.6606   -0.4491   -0.2510 H       1  LIG1        0.0615
     37 H          -7.8511   -3.7626    0.5278 H       1  LIG1        0.1530
     38 H          -2.8186   -1.3482   -0.3412 H       1  LIG1        0.1988
     39 H          -2.4293   -0.3302   -1.5848 H       1  LIG1        0.1988
@<TRIPOS>BOND
     1     1     2   ar
     2     1     3   ar
     3     2     4   ar
     4     3     6   ar
     5     4     7   ar
     6     5     6   ar
     7     5     8   ar
     8     6     7   ar
     9     7    17   ar
    10     8     9    1
    11     8    17   ar
    12     9    19    2
    13     9    20    1
    14    10    11    1
    15    10    14    1
    16    11    15    1
    17    12    14    1
    18    12    16    1
    19    13    15    1
    20    13    16    1
    21    14    18    1
    22    15    18    1
    23    16    20    1
    24     1    21    1
    25     2    22    1
    26     3    23    1
    27     4    24    1
    28     5    25    1
    29    10    26    1
    30    10    27    1
    31    11    28    1
    32    11    29    1
    33    12    30    1
    34    12    31    1
    35    13    32    1
    36    13    33    1
    37    14    34    1
    38    15    35    1
    39    16    36    1
    40    17    37    1
    41    18    38    1
    42    18    39    1
