@<TRIPOS>MOLECULE
ChEBML406375
 38 40 0 0 0
SMALL
USER_CHARGES

@<TRIPOS>ATOM
      1 C          -2.3564    0.8322   -3.6246 C.ar    1  LIG1       -0.0621
      2 C          -2.8350    1.6296   -2.6012 C.ar    1  LIG1       -0.0604
      3 C          -2.4681   -0.5437   -3.5433 C.ar    1  LIG1       -0.0604
      4 C          -8.2744   -3.4460    1.5304 C.ar    1  LIG1       -0.0481
      5 C          -3.4269    1.0539   -1.4942 C.ar    1  LIG1       -0.0409
      6 C          -3.0538   -1.1263   -2.4365 C.ar    1  LIG1       -0.0409
      7 C          -9.2750   -4.3500    1.2426 C.ar    1  LIG1       -0.0412
      8 C          -9.9153   -1.6767    1.6311 C.ar    1  LIG1       -0.0294
      9 C          -8.5885   -2.0997    1.7271 C.ar    1  LIG1        0.0388
     10 C          -3.5408   -0.3280   -1.4093 C.ar    1  LIG1        0.0286
     11 C         -10.5901   -3.9256    1.1488 C.ar    1  LIG1        0.0592
     12 C         -10.9079   -2.5899    1.3378 C.ar    1  LIG1        0.0600
     13 C          -7.5202   -1.1264    2.0363 C.2     1  LIG1        0.2457
     14 C          -4.5400    0.1842    0.5960 C.3     1  LIG1        0.0274
     15 C          -5.3643   -1.5680   -0.7621 C.3     1  LIG1        0.0274
     16 C          -5.1847   -0.3886    1.8623 C.3     1  LIG1        0.0302
     17 C          -6.0619   -2.2605    0.4189 C.3     1  LIG1        0.0302
     18 N          -4.1384   -0.9136   -0.2909 N.pl3   1  LIG1       -0.3276
     19 N          -6.3074   -1.2518    1.4620 N.am    1  LIG1       -0.2947
     20 O          -7.7355   -0.2126    2.8086 O.2     1  LIG1       -0.2716
     21 CL        -11.8442   -5.0699    0.7861 Cl      1  LIG1       -0.0827
     22 CL        -12.5581   -2.0654    1.2112 Cl      1  LIG1       -0.0827
     23 H          -1.8946    1.2850   -4.4895 H       1  LIG1        0.0622
     24 H          -2.7461    2.7039   -2.6679 H       1  LIG1        0.0623
     25 H          -2.0932   -1.1636   -4.3443 H       1  LIG1        0.0623
     26 H          -7.2496   -3.7786    1.6039 H       1  LIG1        0.0631
     27 H          -3.8011    1.6772   -0.6956 H       1  LIG1        0.0642
     28 H          -3.1367   -2.2012   -2.3715 H       1  LIG1        0.0642
     29 H          -9.0328   -5.3914    1.0904 H       1  LIG1        0.0639
     30 H         -10.1641   -0.6368    1.7822 H       1  LIG1        0.0647
     31 H          -5.2570    0.8234    0.0808 H       1  LIG1        0.0485
     32 H          -3.6622    0.7701    0.8687 H       1  LIG1        0.0485
     33 H          -6.0310   -0.8219   -1.1944 H       1  LIG1        0.0485
     34 H          -5.1116   -2.3106   -1.5190 H       1  LIG1        0.0485
     35 H          -5.5522    0.4253    2.4874 H       1  LIG1        0.0486
     36 H          -4.4505   -0.9742    2.4155 H       1  LIG1        0.0486
     37 H          -5.4231   -3.0500    0.8148 H       1  LIG1        0.0486
     38 H          -7.0098   -2.6855    0.0887 H       1  LIG1        0.0486
@<TRIPOS>BOND
     1     1     2   ar
     2     1     3   ar
     3     2     5   ar
     4     3     6   ar
     5     4     7   ar
     6     4     9   ar
     7     5    10   ar
     8     6    10   ar
     9     7    11   ar
    10     8     9   ar
    11     8    12   ar
    12     9    13    1
    13    10    18    1
    14    11    12   ar
    15    11    21    1
    16    12    22    1
    17    13    19   am
    18    13    20    2
    19    14    16    1
    20    14    18    1
    21    15    17    1
    22    15    18    1
    23    16    19    1
    24    17    19    1
    25     1    23    1
    26     2    24    1
    27     3    25    1
    28     4    26    1
    29     5    27    1
    30     6    28    1
    31     7    29    1
    32     8    30    1
    33    14    31    1
    34    14    32    1
    35    15    33    1
    36    15    34    1
    37    16    35    1
    38    16    36    1
    39    17    37    1
    40    17    38    1
