@<TRIPOS>MOLECULE
ChEBML337844
 62 67 0 0 0
SMALL
USER_CHARGES

@<TRIPOS>ATOM
      1 C         -12.5403   -4.7068    1.4003 C.ar    1  LIG1       -0.0615
      2 C         -11.6840   -5.5238    0.6649 C.ar    1  LIG1       -0.0603
      3 C         -12.0824   -3.5079    1.9590 C.ar    1  LIG1       -0.0530
      4 C         -10.3465   -5.1707    0.4644 C.ar    1  LIG1       -0.0402
      5 C          -9.9534   -2.0171    2.1806 C.ar    1  LIG1       -0.0274
      6 C          -1.3435    0.3325   -3.7046 C.ar    1  LIG1       -0.0280
      7 C          -0.6266   -1.4556   -2.2583 C.ar    1  LIG1       -0.0010
      8 C         -10.7378   -3.1313    1.7702 C.ar    1  LIG1       -0.0022
      9 C          -2.5251    0.4748   -2.9619 C.ar    1  LIG1       -0.0361
     10 C          -2.7839   -0.3873   -1.8783 C.ar    1  LIG1        0.0081
     11 C          -9.9026   -3.9697    1.0288 C.ar    1  LIG1        0.0378
     12 C          -0.3989   -0.6292   -3.3535 C.ar    1  LIG1        0.0775
     13 C          -1.8066   -1.3327   -1.5235 C.ar    1  LIG1        0.0826
     14 C          -8.6808   -2.1975    1.6897 C.ar    1  LIG1        0.0847
     15 C          -6.3524    0.8199   -1.2487 C.2     1  LIG1        0.2356
     16 C          -7.5007   -1.3148    1.8469 C.2     1  LIG1        0.2616
     17 C          -6.2181   -1.7162    1.2242 C.2     1  LIG1        0.2890
     18 C          -3.5204    1.5340   -3.3536 C.3     1  LIG1       -0.0114
     19 C          -6.2870   -1.7273   -2.9467 C.3     1  LIG1       -0.0492
     20 C          -7.4540   -1.2785   -2.0642 C.3     1  LIG1       -0.0255
     21 C          -5.1883   -2.3930   -2.1202 C.3     1  LIG1       -0.0322
     22 C          -4.3574    1.9604   -2.1566 C.3     1  LIG1        0.0189
     23 C          -4.0696   -0.2701   -1.0675 C.3     1  LIG1        0.0720
     24 C          -6.9804   -0.5080   -0.8261 C.3     1  LIG1        0.1031
     25 C          -4.8044   -1.6117   -0.8474 C.3     1  LIG1        0.0495
     26 C           1.6728   -1.7567   -3.6577 C.3     1  LIG1        0.0422
     27 C          -1.3694   -1.6096    0.7977 C.3     1  LIG1        0.0423
     28 N          -8.6600   -3.3778    0.9963 N.ar    1  LIG1       -0.3111
     29 N          -4.9855    0.7910   -1.5498 N.am    1  LIG1       -0.2908
     30 N          -6.0146   -1.2986   -0.0823 N.am    1  LIG1       -0.2777
     31 O          -7.0872    1.7850   -1.4778 O.2     1  LIG1       -0.2752
     32 O          -7.5836   -0.2587    2.4641 O.2     1  LIG1       -0.2818
     33 O          -5.4717   -2.3801    1.9316 O.2     1  LIG1       -0.2677
     34 O           0.7497   -0.7510   -4.0730 O.3     1  LIG1       -0.3492
     35 O          -1.9196   -2.1189   -0.4147 O.3     1  LIG1       -0.3488
     36 H         -13.5767   -5.0022    1.5419 H       1  LIG1        0.0623
     37 H         -12.0608   -6.4506    0.2403 H       1  LIG1        0.0623
     38 H         -12.7609   -2.8801    2.5297 H       1  LIG1        0.0629
     39 H          -9.6798   -5.8073   -0.1078 H       1  LIG1        0.0642
     40 H         -10.2887   -1.1754    2.7719 H       1  LIG1        0.0651
     41 H          -1.1552    0.9836   -4.5555 H       1  LIG1        0.0653
     42 H           0.1218   -2.1894   -1.9686 H       1  LIG1        0.0678
     43 H          -3.0035    2.4129   -3.7556 H       1  LIG1        0.0332
     44 H          -4.1652    1.1284   -4.1427 H       1  LIG1        0.0332
     45 H          -6.6502   -2.4259   -3.7093 H       1  LIG1        0.0268
     46 H          -5.8758   -0.8704   -3.4915 H       1  LIG1        0.0268
     47 H          -8.1438   -0.6679   -2.6586 H       1  LIG1        0.0291
     48 H          -8.0098   -2.1673   -1.7391 H       1  LIG1        0.0291
     49 H          -5.5573   -3.3808   -1.8112 H       1  LIG1        0.0286
     50 H          -4.3121   -2.5792   -2.7502 H       1  LIG1        0.0286
     51 H          -3.7399    2.4399   -1.3871 H       1  LIG1        0.0473
     52 H          -5.1107    2.6886   -2.4743 H       1  LIG1        0.0473
     53 H          -3.7612    0.0996   -0.0774 H       1  LIG1        0.0578
     54 H          -7.8406   -0.2765   -0.1876 H       1  LIG1        0.0607
     55 H          -4.1892   -2.2851   -0.2508 H       1  LIG1        0.0529
     56 H           2.5447   -1.7464   -4.3163 H       1  LIG1        0.0535
     57 H           1.1874   -2.7353   -3.6934 H       1  LIG1        0.0535
     58 H           1.9902   -1.5469   -2.6335 H       1  LIG1        0.0535
     59 H          -1.5265   -2.3326    1.6020 H       1  LIG1        0.0535
     60 H          -1.8509   -0.6607    1.0470 H       1  LIG1        0.0535
     61 H          -0.2977   -1.4473    0.6610 H       1  LIG1        0.0535
     62 H          -7.8511   -3.7625    0.5277 H       1  LIG1        0.1529
@<TRIPOS>BOND
     1     1     2   ar
     2     1     3   ar
     3     2     4   ar
     4     3     8   ar
     5     4    11   ar
     6     5     8   ar
     7     5    14   ar
     8     6     9   ar
     9     6    12   ar
    10     7    12   ar
    11     7    13   ar
    12     8    11   ar
    13     9    10   ar
    14     9    18    1
    15    10    13   ar
    16    10    23    1
    17    11    28   ar
    18    12    34    1
    19    13    35    1
    20    14    16    1
    21    14    28   ar
    22    15    24    1
    23    15    29   am
    24    15    31    2
    25    16    17    1
    26    16    32    2
    27    17    30   am
    28    17    33    2
    29    18    22    1
    30    19    20    1
    31    19    21    1
    32    20    24    1
    33    21    25    1
    34    22    29    1
    35    23    25    1
    36    23    29    1
    37    24    30    1
    38    25    30    1
    39    26    34    1
    40    27    35    1
    41     1    36    1
    42     2    37    1
    43     3    38    1
    44     4    39    1
    45     5    40    1
    46     6    41    1
    47     7    42    1
    48    18    43    1
    49    18    44    1
    50    19    45    1
    51    19    46    1
    52    20    47    1
    53    20    48    1
    54    21    49    1
    55    21    50    1
    56    22    51    1
    57    22    52    1
    58    23    53    1
    59    24    54    1
    60    25    55    1
    61    26    56    1
    62    26    57    1
    63    26    58    1
    64    27    59    1
    65    27    60    1
    66    27    61    1
    67    28    62    1
