#	Name: NoName
#	Creating user name:	servers
#	Creation time:	01. 11. 2011 17:29

#	Modifying user name:	servers
#	Modification time:	01. 11. 2011 17:29

#	Program:	corina31 3.10 0023  20.07.2004

@<TRIPOS>MOLECULE
NoName
  60   63    0    0    0
SMALL
USER_CHARGES


@<TRIPOS>ATOM
   1 C1             0.4845    -2.2337    -1.7457 C.3       1 <1>         0.0000
   2 C2            -0.8151    -2.7848    -2.3358 C.3       1 <1>         0.0000
   3 C3            -0.8559    -4.3030    -2.1503 C.3       1 <1>         0.0000
   4 N4            -1.9587    -2.1781    -1.6499 N.pl3     1 <1>         0.0000
   5 C5            -2.4505    -0.9372    -2.0724 C.ar      1 <1>         0.0000
   6 C6            -1.8026    -0.2257    -3.0735 C.ar      1 <1>         0.0000
   7 C7            -2.3278     1.0001    -3.4594 C.ar      1 <1>         0.0000
   8 C8            -3.4686     1.4724    -2.8427 C.ar      1 <1>         0.0000
   9 N9            -4.0660     0.7762    -1.8930 N.ar      1 <1>         0.0000
  10 C10           -3.6042    -0.3983    -1.4973 C.ar      1 <1>         0.0000
  11 N11           -4.2667    -1.0982    -0.4917 N.3       1 <1>         0.0000
  12 C12           -4.4713    -0.1553     0.6138 C.3       1 <1>         0.0000
  13 C13           -5.1776    -0.8675     1.7719 C.3       1 <1>         0.0000
  14 N14           -6.4311    -1.4482     1.2646 N.am      1 <1>         0.0000
  15 C15           -6.3699    -2.2441     0.0282 C.3       1 <1>         0.0000
  16 C16           -5.5898    -1.4467    -1.0219 C.3       1 <1>         0.0000
  17 C17           -7.5978    -1.2577     1.9119 C.2       1 <1>         0.0000
  18 O18           -7.7272    -0.3127     2.6670 O.2       1 <1>         0.0000
  19 C19           -8.7144    -2.1920     1.7054 C.2       1 <1>         0.0000
  20 C20           -9.9774    -2.0270     2.1787 C.2       1 <1>         0.0000
  21 C21          -10.7436    -3.1426     1.7626 C.ar      1 <1>         0.0000
  22 C22          -12.0823    -3.5120     1.9498 C.ar      1 <1>         0.0000
  23 C23          -12.5474    -4.6925     1.4066 C.ar      1 <1>         0.0000
  24 N24          -13.8838    -5.0650     1.5908 N.am      1 <1>         0.0000
  25 S25          -14.7768    -5.6072     0.3060 S.o2      1 <1>         0.0000
  26 O26          -13.9965    -6.6878    -0.1865 O.2       1 <1>         0.0000
  27 O27          -16.0632    -5.8034     0.8769 O.2       1 <1>         0.0000
  28 C28          -14.7596    -4.1962    -0.8340 C.3       1 <1>         0.0000
  29 C29          -11.6916    -5.5160     0.6743 C.ar      1 <1>         0.0000
  30 C30          -10.3752    -5.1648     0.4838 C.ar      1 <1>         0.0000
  31 C31           -9.8853    -3.9782     1.0225 C.ar      1 <1>         0.0000
  32 N32           -8.6479    -3.3743     0.9946 N.pl3     1 <1>         0.0000
  33 H33           -7.8590    -3.7230     0.5508 H         1 <1>         0.0000
  34 H34            1.3354    -2.6851    -2.2560 H         1 <1>         0.0000
  35 H35            0.5136    -1.1521    -1.8778 H         1 <1>         0.0000
  36 H36            0.5304    -2.4713    -0.6829 H         1 <1>         0.0000
  37 H37           -0.8610    -2.5473    -3.3986 H         1 <1>         0.0000
  38 H38           -0.8100    -4.5406    -1.0875 H         1 <1>         0.0000
  39 H39           -1.7818    -4.6956    -2.5707 H         1 <1>         0.0000
  40 H40           -0.0051    -4.7544    -2.6606 H         1 <1>         0.0000
  41 H41           -2.3751    -2.6362    -0.9031 H         1 <1>         0.0000
  42 H42           -0.9107    -0.6166    -3.5406 H         1 <1>         0.0000
  43 H43           -1.8480     1.5789    -4.2347 H         1 <1>         0.0000
  44 H44           -3.8786     2.4259    -3.1411 H         1 <1>         0.0000
  45 H45           -3.5063     0.2209     0.9534 H         1 <1>         0.0000
  46 H46           -5.0852     0.6778     0.2715 H         1 <1>         0.0000
  47 H47           -4.5374    -1.6592     2.1611 H         1 <1>         0.0000
  48 H48           -5.3987    -0.1512     2.5632 H         1 <1>         0.0000
  49 H49           -5.8617    -3.1883     0.2243 H         1 <1>         0.0000
  50 H50           -7.3795    -2.4383    -0.3337 H         1 <1>         0.0000
  51 H51           -6.1354    -0.5348    -1.2644 H         1 <1>         0.0000
  52 H52           -5.4727    -2.0496    -1.9224 H         1 <1>         0.0000
  53 H53          -10.3329    -1.1943     2.7674 H         1 <1>         0.0000
  54 H54          -12.7466    -2.8765     2.5166 H         1 <1>         0.0000
  55 H55          -14.2869    -5.0056     2.4711 H         1 <1>         0.0000
  56 H56          -13.7407    -4.0200    -1.1786 H         1 <1>         0.0000
  57 H57          -15.4001    -4.4122    -1.6891 H         1 <1>         0.0000
  58 H58          -15.1277    -3.3087    -0.3193 H         1 <1>         0.0000
  59 H59          -12.0659    -6.4376     0.2536 H         1 <1>         0.0000
  60 H60           -9.7213    -5.8100    -0.0841 H         1 <1>         0.0000
@<TRIPOS>BOND
   1    1    2 1
   2    1   34 1
   3    1   35 1
   4    1   36 1
   5    2    3 1
   6    2    4 1
   7    2   37 1
   8    3   38 1
   9    3   39 1
  10    3   40 1
  11    4    5 1
  12    4   41 1
  13    5   10 ar
  14    5    6 ar
  15    6    7 ar
  16    6   42 1
  17    7    8 ar
  18    7   43 1
  19    8    9 ar
  20    8   44 1
  21    9   10 ar
  22   10   11 1
  23   11   16 1
  24   11   12 1
  25   12   13 1
  26   12   45 1
  27   12   46 1
  28   13   14 1
  29   13   47 1
  30   13   48 1
  31   14   15 1
  32   14   17 am
  33   15   16 1
  34   15   49 1
  35   15   50 1
  36   16   51 1
  37   16   52 1
  38   17   18 2
  39   17   19 1
  40   19   32 1
  41   19   20 2
  42   20   21 1
  43   20   53 1
  44   21   31 ar
  45   21   22 ar
  46   22   23 ar
  47   22   54 1
  48   23   24 1
  49   23   29 ar
  50   24   25 am
  51   24   55 1
  52   25   26 2
  53   25   27 2
  54   25   28 1
  55   28   56 1
  56   28   57 1
  57   28   58 1
  58   29   30 ar
  59   29   59 1
  60   30   31 ar
  61   30   60 1
  62   31   32 1
  63   32   33 1

#	End of record

