@<TRIPOS>MOLECULE
AL-182/12304024
   33    35     0
SMALL
USER_CHARGE


@<TRIPOS>ATOM
      1 C1          6.8099   -4.0103    1.0920 C.ar      1 <1>        -0.0857
      2 C2          7.9938   -3.2937    0.9283 C.ar      1 <1>        -0.0865
      3 C3          5.6017   -3.3500    1.3423 C.ar      1 <1>        -0.0712
      4 C4          8.0087   -1.8984    1.0093 C.ar      1 <1>        -0.0758
      5 C5          5.1748    0.2685    1.6338 C.2       1 <1>        -0.0263
      6 C6          5.5920   -1.9435    1.4282 C.ar      1 <1>        -0.0532
      7 C7          4.5795   -0.9716    1.6631 C.2       1 <1>        -0.0466
      8 C8          6.7934   -1.2516    1.2600 C.ar      1 <1>        -0.0488
      9 C9          3.1580   -1.1920    1.8970 C.2       1 <1>        -0.0745
     10 C10         1.3865    2.2411    0.3182 C.3       1 <1>        -0.0519
     11 C11         2.0973    2.2241    1.6721 C.3       1 <1>        -0.0444
     12 C12         1.8387    1.0682   -0.5522 C.3       1 <1>        -0.0444
     13 C13         1.9237    0.8787    2.3708 C.3       1 <1>        -0.0258
     14 C14         1.6698   -0.2607    0.1786 C.3       1 <1>        -0.0260
     15 N1          6.5100    0.0893    1.3898 N.pl3     1 <1>        -0.3446
     16 N2          2.3059   -0.2187    1.4900 N.pl3     1 <1>        -0.4191
     17 S1          2.5985   -2.5976    2.6127 S.2       1 <1>        -0.2471
     18 H1          6.8239   -5.0952    1.0240 H         1 <1>         0.1227
     19 H2          8.9213   -3.8269    0.7349 H         1 <1>         0.1260
     20 H3          4.6874   -3.9229    1.4673 H         1 <1>         0.1524
     21 H4          8.9310   -1.3418    0.8818 H         1 <1>         0.1336
     22 H5          4.7713    1.2633    1.7641 H         1 <1>         0.2299
     23 H6          0.3020    2.1870    0.4724 H         1 <1>         0.0464
     24 H7          1.5920    3.1861   -0.1967 H         1 <1>         0.0452
     25 H8          3.1660    2.4172    1.5167 H         1 <1>         0.0583
     26 H9          1.7110    3.0281    2.3079 H         1 <1>         0.0588
     27 H10         1.2697    1.0550   -1.4881 H         1 <1>         0.0586
     28 H11         2.8949    1.2055   -0.8157 H         1 <1>         0.0586
     29 H12         2.5191    0.8487    3.2898 H         1 <1>         0.0937
     30 H13         0.8747    0.7243    2.6493 H         1 <1>         0.0977
     31 H14         0.6070   -0.4780    0.3376 H         1 <1>         0.0931
     32 H15         2.0900   -1.0780   -0.4178 H         1 <1>         0.0974
     33 H16         7.1898    0.8336    1.3161 H         1 <1>         0.2992
@<TRIPOS>BOND
     1    1    2 ar
     2    1    3 ar
     3    2    4 ar
     4    3    6 ar
     5    4    8 ar
     6    5    7 2
     7    5   15 1
     8    6    7 1
     9    6    8 ar
    10    7    9 1
    11    8   15 1
    12    9   16 1
    13    9   17 2
    14   10   11 1
    15   10   12 1
    16   11   13 1
    17   12   14 1
    18   13   16 1
    19   14   16 1
    20    1   18 1
    21    2   19 1
    22    3   20 1
    23    4   21 1
    24    5   22 1
    25   10   23 1
    26   10   24 1
    27   11   25 1
    28   11   26 1
    29   12   27 1
    30   12   28 1
    31   13   29 1
    32   13   30 1
    33   14   31 1
    34   14   32 1
    35   15   33 1
