@<TRIPOS>MOLECULE
AD-266/41884718
   34    35     0
SMALL
USER_CHARGE


@<TRIPOS>ATOM
      1 C1          6.7587   -3.9984    1.1016 C.ar      1 <1>        -0.0942
      2 C2          7.9703   -3.3318    0.9300 C.ar      1 <1>        -0.0898
      3 C3          5.5790   -3.2875    1.3501 C.ar      1 <1>        -0.0928
      4 C4          8.0423   -1.9377    1.0009 C.ar      1 <1>        -0.0825
      5 C5          5.3010    0.3474    1.6166 C.2       1 <1>        -0.0634
      6 C6          5.6270   -1.8813    1.4259 C.ar      1 <1>        -0.0862
      7 C7          4.6556   -0.8671    1.6561 C.2       1 <1>        -0.0925
      8 C8          6.8551   -1.2402    1.2499 C.ar      1 <1>        -0.0701
      9 C9          0.4244    0.7518    0.9732 C.3       1 <1>        -0.0561
     10 C10         0.1126   -1.9713   -0.1852 C.3       1 <1>        -0.0445
     11 C11         3.2126   -1.0695    1.8971 C.3       1 <1>        -0.0314
     12 C12         0.4010   -0.5078    1.8113 C.3       1 <1>        -0.0477
     13 C13         2.3960   -1.4165    0.6442 C.3       1 <1>        -0.0388
     14 N1          6.6271    0.1121    1.3707 N.pl3     1 <1>        -0.3665
     15 N2          0.9767   -1.6491    1.0092 N.4       1 <1>         0.4457
     16 H1          6.7279   -5.0830    1.0416 H         1 <1>         0.1173
     17 H2          8.8744   -3.9039    0.7382 H         1 <1>         0.1269
     18 H3          4.6422   -3.8217    1.4806 H         1 <1>         0.1209
     19 H4          8.9862   -1.4199    0.8683 H         1 <1>         0.1335
     20 H5          4.9363    1.3580    1.7396 H         1 <1>         0.1810
     21 H6          1.4544    1.0125    0.7113 H         1 <1>         0.0516
     22 H7         -0.1379    0.6189    0.0431 H         1 <1>         0.0425
     23 H8         -0.0110    1.5970    1.5165 H         1 <1>         0.0424
     24 H9          0.1328   -1.1091   -0.8543 H         1 <1>         0.0625
     25 H10         0.5301   -2.8553   -0.6711 H         1 <1>         0.0624
     26 H11        -0.8994   -2.1634    0.1766 H         1 <1>         0.0625
     27 H12         3.0668   -1.8926    2.6217 H         1 <1>         0.0748
     28 H13         2.7552   -0.1880    2.3849 H         1 <1>         0.0747
     29 H14        -0.6184   -0.7911    2.0872 H         1 <1>         0.0607
     30 H15         1.0140   -0.4061    2.7110 H         1 <1>         0.0614
     31 H16         2.7485   -2.3408    0.1768 H         1 <1>         0.0705
     32 H17         2.4065   -0.6099   -0.0950 H         1 <1>         0.0701
     33 H18         7.3367    0.8272    1.2897 H         1 <1>         0.2810
     34 H19         0.9382   -2.4809    1.6228 H         1 <1>         0.1138
@<TRIPOS>BOND
     1    1    2 ar
     2    1    3 ar
     3    2    4 ar
     4    3    6 ar
     5    4    8 ar
     6    5    7 2
     7    5   14 1
     8    6    7 1
     9    6    8 ar
    10    7   11 1
    11    8   14 1
    12    9   12 1
    13   10   15 1
    14   11   13 1
    15   12   15 1
    16   13   15 1
    17    1   16 1
    18    2   17 1
    19    3   18 1
    20    4   19 1
    21    5   20 1
    22    9   21 1
    23    9   22 1
    24    9   23 1
    25   10   24 1
    26   10   25 1
    27   10   26 1
    28   11   27 1
    29   11   28 1
    30   12   29 1
    31   12   30 1
    32   13   31 1
    33   13   32 1
    34   14   33 1
    35   15   34 1
