@<TRIPOS>MOLECULE
AG-205/03663045
   23    24     0
SMALL
USER_CHARGE


@<TRIPOS>ATOM
      1 C1          6.3472   -3.8601    1.1818 C.ar      1 <1>        -0.1160
      2 C2          7.6166   -3.3174    0.9926 C.ar      1 <1>        -0.0876
      3 C3          5.2437   -3.0340    1.4239 C.ar      1 <1>        -0.0873
      4 C4          7.8240   -1.9358    1.0391 C.ar      1 <1>        -0.1119
      5 C5          5.3214    0.6147    1.6290 C.2       1 <1>         0.1947
      6 C6          5.4284   -1.6381    1.4751 C.ar      1 <1>        -0.0874
      7 C7          6.7117   -1.1222    1.2820 C.ar      1 <1>         0.0845
      8 C8          4.5616   -0.5306    1.6927 C.2       1 <1>        -0.3272
      9 C9          2.2884   -0.5089    0.3335 C.cat     1 <1>         0.4534
     10 N1          6.6168    0.2477    1.3807 N.pl3     1 <1>        -0.5829
     11 N2          3.1854   -0.4192   -0.6388 N.pl3     1 <1>        -0.8111
     12 N3          0.9836   -0.5226    0.0934 N.pl3     1 <1>        -0.7798
     13 S1          2.8434   -0.6002    1.9879 S.3       1 <1>         0.2243
     14 H1          6.2110   -4.9376    1.1408 H         1 <1>         0.1338
     15 H2          8.4599   -3.9776    0.8068 H         1 <1>         0.1379
     16 H3          4.2620   -3.4760    1.5681 H         1 <1>         0.1252
     17 H4          8.8130   -1.5143    0.8931 H         1 <1>         0.1331
     18 H5          5.0613    1.6590    1.7359 H         1 <1>         0.1947
     19 H6          7.3914    0.8894    1.2830 H         1 <1>         0.4655
     20 H7          2.8843   -0.3596   -1.6046 H         1 <1>         0.4516
     21 H8          4.1778   -0.4120   -0.4316 H         1 <1>         0.4711
     22 H9          0.6300   -0.4650   -0.8550 H         1 <1>         0.4517
     23 H10         0.3233   -0.5930    0.8589 H         1 <1>         0.4696
@<TRIPOS>BOND
     1    1    2 ar
     2    1    3 ar
     3    2    4 ar
     4    3    6 ar
     5    4    7 ar
     6    5    8 2
     7    5   10 1
     8    6    7 ar
     9    6    8 1
    10    7   10 1
    11    8   13 1
    12    9   11 1
    13    9   12 2
    14    9   13 1
    15    1   14 1
    16    2   15 1
    17    3   16 1
    18    4   17 1
    19    5   18 1
    20   10   19 1
    21   11   20 1
    22   11   21 1
    23   12   22 1
    24   12   23 1
