@<TRIPOS>MOLECULE
AA-516/30131054
   22    23     0
SMALL
USER_CHARGE


@<TRIPOS>ATOM
      1 C1          3.3450    1.6753    0.8848 C.1       1 <1>        -0.0702
      2 C2          5.6623    0.3900    1.7510 C.ar      1 <1>        -0.0672
      3 C3          6.9305   -0.1832    1.8616 C.ar      1 <1>        -0.0681
      4 C4          4.7313   -1.7319    1.0674 C.ar      1 <1>        -0.0696
      5 C5          7.7552   -3.8984    1.1416 C.2       1 <1>        -0.0611
      6 C6          6.0046   -2.3427    1.1701 C.ar      1 <1>        -0.0725
      7 C7          4.5726   -0.3743    1.3583 C.ar      1 <1>        -0.0493
      8 C8          6.4122   -3.6976    0.9283 C.2       1 <1>        -0.0866
      9 C9          7.0870   -1.5520    1.5677 C.ar      1 <1>        -0.0591
     10 C10         5.4910   -4.7774    0.4935 C.3       1 <1>        -0.0342
     11 C11         3.2245    0.2544    1.2446 C.3       1 <1>         0.0810
     12 N1          3.4390    2.7967    0.6021 N.1       1 <1>        -0.4549
     13 S1          8.5450   -2.4703    1.6336 S.3       1 <1>        -0.2018
     14 H1          5.5390    1.4464    1.9770 H         1 <1>         0.1462
     15 H2          7.7779    0.4229    2.1698 H         1 <1>         0.1478
     16 H3          3.8709   -2.3224    0.7602 H         1 <1>         0.1435
     17 H4          8.3129   -4.8183    1.0328 H         1 <1>         0.1749
     18 H5          5.0587   -5.2932    1.3629 H         1 <1>         0.0660
     19 H6          4.6644   -4.3839   -0.1168 H         1 <1>         0.0643
     20 H7          6.0075   -5.5257   -0.1264 H         1 <1>         0.0655
     21 H8          2.6746    0.1596    2.1907 H         1 <1>         0.2023
     22 H9          2.6188   -0.2663    0.4909 H         1 <1>         0.2032
@<TRIPOS>BOND
     1    1   11 1
     2    1   12 3
     3    2    3 ar
     4    2    7 ar
     5    3    9 ar
     6    4    6 ar
     7    4    7 ar
     8    5    8 2
     9    5   13 1
    10    6    8 1
    11    6    9 ar
    12    7   11 1
    13    8   10 1
    14    9   13 1
    15    2   14 1
    16    3   15 1
    17    4   16 1
    18    5   17 1
    19   10   18 1
    20   10   19 1
    21   10   20 1
    22   11   21 1
    23   11   22 1
