@<TRIPOS>MOLECULE
AH-262/34227019
   29    30     0
SMALL
USER_CHARGE


@<TRIPOS>ATOM
      1 C1          2.4362    0.6237   -0.1060 C.1       1 <1>         0.0158
      2 C2          6.4710   -3.9173    0.8908 C.ar      1 <1>        -0.0859
      3 C3          7.7158   -3.2972    0.8037 C.ar      1 <1>        -0.0852
      4 C4          5.3137   -3.1692    1.1358 C.ar      1 <1>        -0.0713
      5 C5          7.8446   -1.9140    0.9582 C.ar      1 <1>        -0.0714
      6 C6          5.4187   -1.7731    1.2950 C.ar      1 <1>        -0.0367
      7 C7          4.4831   -0.7309    1.5474 C.2       1 <1>         0.0044
      8 C8          6.6792   -1.1789    1.2028 C.ar      1 <1>        -0.0371
      9 C9          5.1808    0.4537    1.6026 C.2       1 <1>         0.0065
     10 C10         3.0852   -0.8510    1.7174 C.2       1 <1>         0.0374
     11 C11         2.0918   -0.2487    0.9699 C.2       1 <1>         0.1145
     12 C12         0.6572   -0.5166    1.3318 C.2       1 <1>         0.1030
     13 C13         4.1310    2.0183    3.0536 C.3       1 <1>         0.0231
     14 N1          2.7132    1.3342   -0.9809 N.1       1 <1>        -0.4079
     15 N2          6.5045    0.1733    1.3934 N.pl3     1 <1>        -0.3276
     16 N3          0.0845   -1.5867    0.6819 N.am      1 <1>        -0.2948
     17 O1          0.0410    0.1661    2.1474 O.2       1 <1>        -0.5234
     18 O2          4.7910    1.7043    1.8095 O.3       1 <1>        -0.4535
     19 H1          6.3960   -4.9945    0.7672 H         1 <1>         0.1238
     20 H2          8.6016   -3.8976    0.6122 H         1 <1>         0.1267
     21 H3          4.3517   -3.6697    1.2009 H         1 <1>         0.1401
     22 H4          8.8141   -1.4321    0.8897 H         1 <1>         0.1375
     23 H5          2.7494   -1.4918    2.5620 H         1 <1>         0.2561
     24 H6          3.8739    3.0803    3.0726 H         1 <1>         0.1334
     25 H7          4.7932    1.7779    3.8892 H         1 <1>         0.1338
     26 H8          3.2181    1.4233    3.1318 H         1 <1>         0.1547
     27 H9          7.2456    0.8599    1.3804 H         1 <1>         0.3109
     28 H10         0.5722   -2.1657    0.0068 H         1 <1>         0.2848
     29 H11        -0.8811   -1.8399    0.8656 H         1 <1>         0.2882
@<TRIPOS>BOND
     1    1   11 1
     2    1   14 3
     3    2    3 ar
     4    2    4 ar
     5    3    5 ar
     6    4    6 ar
     7    5    8 ar
     8    6    7 1
     9    6    8 ar
    10    7    9 2
    11    7   10 1
    12    8   15 1
    13    9   15 1
    14    9   18 1
    15   10   11 2
    16   11   12 1
    17   12   16 am
    18   12   17 2
    19   13   18 1
    20    2   19 1
    21    3   20 1
    22    4   21 1
    23    5   22 1
    24   10   23 1
    25   13   24 1
    26   13   25 1
    27   13   26 1
    28   15   27 1
    29   16   28 1
    30   16   29 1
